Circuit: * D:\Term 7\Senior Design\Wireless Power\Spice\AC Analysis.asc


Date: Sun Oct 18 23:00:37 2020
Total elapsed time: 0.055 seconds.

tnom = 27
temp = 27
method = trap
totiter = 0
traniter = 0
tranpoints = 0
accept = 0
rejected = 0
matrix size = 5
fillins = 2
solver = Normal

