Circuit: * D:\Term 7\Senior Design\Wireless Power\Spice\Full Bridge Simple.asc

Direct Newton iteration for .op point succeeded.

Date: Sun Oct 18 23:07:21 2020
Total elapsed time: 4.807 seconds.

tnom = 27
temp = 27
method = modified trap
totiter = 1399920
traniter = 1399916
tranpoints = 687577
accept = 632570
rejected = 55007
matrix size = 12
fillins = 4
solver = Normal
Matrix Compiler1:      48 opcodes  0.2/[0.1]/0.1
Matrix Compiler2: 948 bytes object code size  0.1/0.1/[0.1]

