Circuit: * D:\AUV Capstone\AUV-Senior-Design\Mark\WPT Sims\Full Bridge Simple.asc

Direct Newton iteration for .op point succeeded.

Date: Mon Oct 26 22:48:52 2020
Total elapsed time: 9.509 seconds.

tnom = 27
temp = 27
method = modified trap
totiter = 2799712
traniter = 2799707
tranpoints = 1375046
accept = 1265062
rejected = 109984
matrix size = 11
fillins = 4
solver = Normal
Matrix Compiler1: 914 bytes object code size  0.2/0.1/[0.1]
Matrix Compiler2: off  [0.1]/0.1/0.1

