Circuit: * D:\AUV Capstone\AUV-Senior-Design\Mark\WPT Sims\Full Bridge Simple.asc

C2: Increased Cpar to 3.8e-013
C1: Increased Cpar to 3.8e-013
C4: Increased Cpar to 1e-009
C3: Increased Cpar to 5e-009
Direct Newton iteration for .op point succeeded.

Date: Wed Oct 28 00:35:39 2020
Total elapsed time: 13.549 seconds.

tnom = 27
temp = 27
method = modified trap
totiter = 3023584
traniter = 3023580
tranpoints = 1486350
accept = 1348306
rejected = 138044
matrix size = 13
fillins = 8
solver = Normal
Matrix Compiler1: 1.15 KB object code size  0.2/0.1/[0.1]
Matrix Compiler2: 1.08 KB object code size  0.1/0.1/[0.1]

