Circuit: * D:\AUV Capstone\AUV-Senior-Design\Mark\WPT Sims\Full Bridge Simple.asc

C4: Increased Cpar to 5e-010
C3: Increased Cpar to 2.5e-009
Direct Newton iteration for .op point succeeded.

Date: Tue Oct 27 22:08:24 2020
Total elapsed time: 17.053 seconds.

tnom = 27
temp = 27
method = modified trap
totiter = 3712858
traniter = 3712853
tranpoints = 1804264
accept = 1603325
rejected = 200939
matrix size = 13
fillins = 8
solver = Normal
Matrix Compiler1: 1.15 KB object code size  0.2/0.1/[0.1]
Matrix Compiler2: 1.08 KB object code size  0.1/0.1/[0.1]

