Circuit: * D:\AUV Capstone\AUV-Senior-Design\Mark\WPT Sims\TX RX Complex.asc

C4: Increased Cpar to 1e-009
C3: Increased Cpar to 1.32e-009
Direct Newton iteration failed to find .op point.  (Use ".option noopiter" to skip.)
Starting Gmin stepping
Gmin = 10
Gmin = 1.07374
vernier = 0.5
vernier = 0.666667
Gmin = 0.375229
vernier = 0.888888
vernier = 1
Gmin = 0.0567082
Gmin = 0.006089
vernier = 0.5
Gmin = 0.00102156
vernier = 0.25
vernier = 0.125
vernier = 0.0625
vernier = 0.03125
Gmin = 0.00099805
vernier = 0.015625
vernier = 0.0078125
vernier = 0.00390625
vernier = 0.00195313
Gmin = 0.00100047
vernier = 0.000976563
vernier = 0.000488281
Gmin = 0
Gmin stepping failed

Starting source stepping with srcstepmethod=0
Source Step = 3.0303%
Source Step = 33.3333%
Source Step = 63.6364%
Source Step = 93.9394%
Source stepping succeeded in finding the operating point.

Heightened Def Con from 0.00308966 to 0.00308966
Heightened Def Con from 0.00308966 +++to 0.00308966
Heightened Def Con from 0.00308966 +++to 0.00308966
Heightened Def Con from 0.00308966 +to 0.00308966
Heightened Def Con from 0.00308966 to 0.00308966
Heightened Def Con from 0.00428484 ++to 0.00428484
Heightened Def Con from 0.00428484 to 0.00428484
Heightened Def Con from 0.00428484 to 0.00428484
Heightened Def Con from 0.00575182 to 0.00575182
Heightened Def Con from 0.00575182 to 0.00575182
Heightened Def Con from 0.00575283 to 0.00575283
Heightened Def Con from 0.00602358 to 0.00602358
Heightened Def Con from 0.00721908 to 0.00721908
Heightened Def Con from 0.00749061 to 0.00749061
Heightened Def Con from 0.00749061 ++to 0.00749061
Heightened Def Con from 0.00749061 ++++to 0.00749061
Heightened Def Con from 0.00749061 +to 0.00749061
Heightened Def Con from 0.00749061 to 0.00749061
Heightened Def Con from 0.00749061 to 0.00749061
Heightened Def Con from 0.00868627 to 0.00868627
Heightened Def Con from 0.00895429 to 0.00895429
Heightened Def Con from 0.0101516 to 0.0101516
Heightened Def Con from 0.0104233 to 0.0104233
Heightened Def Con from 0.0116188 +++to 0.0116188
Heightened Def Con from 0.0116188 +++to 0.0116188
Heightened Def Con from 0.0116188 ++++++to 0.0116188
Heightened Def Con from 0.0116188 +to 0.0116188
Heightened Def Con from 0.0118907 to 0.0118907
Heightened Def Con from 0.0133593 to 0.0133593
Heightened Def Con from 0.0145557 to 0.0145557
Heightened Def Con from 0.0145557 to 0.0145557
Heightened Def Con from 0.0148275 to 0.0148275
Heightened Def Con from 0.0148275 ++++++to 0.0148275
Heightened Def Con from 0.0148275 to 0.0148275
Heightened Def Con from 0.0160232 to 0.0160232
Heightened Def Con from 0.0174902 to 0.0174902
Heightened Def Con from 0.0192278 to 0.0192278
Heightened Def Con from 0.0192278 to 0.0192278

Date: Mon Nov 09 23:42:38 2020
Total elapsed time: 691.995 seconds.

tnom = 27
temp = 27
method = modified trap
totiter = 4851673
traniter = 4849609
tranpoints = 2300354
accept = 2224231
rejected = 76196
matrix size = 392
fillins = 495
solver = Normal
Thread vector: 29.5/14.2[8] 4.9/4.5[2] 12.6/7.0[8] 1.2/2.4[1]  2592/500
Matrix Compiler1: 42.30 KB object code size  12.0/6.2/[2.6]
Matrix Compiler2: 35.51 KB object code size  5.5/15.7/[2.2]

