Circuit: * D:\AUV Capstone\AUV-Senior-Design\Mark\WPT Sims\TX RX Complex.asc

C4: Increased Cpar to 1e-009
C3: Increased Cpar to 2.5e-009
Direct Newton iteration failed to find .op point.  (Use ".option noopiter" to skip.)
Starting Gmin stepping
Gmin = 10
Gmin = 1.07374
vernier = 0.5
vernier = 0.666667
Gmin = 0.375229
vernier = 0.888888
vernier = 1
Gmin = 0.0567082
Gmin = 0.006089
vernier = 0.5
Gmin = 0.00102156
vernier = 0.25
vernier = 0.125
vernier = 0.0625
vernier = 0.03125
Gmin = 0.00099805
vernier = 0.015625
vernier = 0.0078125
vernier = 0.00390625
vernier = 0.00195313
Gmin = 0.00100047
vernier = 0.000976563
vernier = 0.000488281
Gmin = 0
Gmin stepping failed

Starting source stepping with srcstepmethod=0
Source Step = 3.0303%
Source Step = 33.3333%
Source Step = 63.6364%
Source Step = 93.9394%
Source stepping succeeded in finding the operating point.

Heightened Def Con from 0.00867659 to 0.00867659
Heightened Def Con from 0.0104124 to 0.0104124
Heightened Def Con from 0.0116063 +++to 0.0116063
Heightened Def Con from 0.0116063 to 0.0116063
Heightened Def Con from 0.0118778 ++++to 0.0118778
Heightened Def Con from 0.0130714 to 0.0130714
Heightened Def Con from 0.0130714 +++++to 0.0130714
Heightened Def Con from 0.0130714 to 0.0130714
Heightened Def Con from 0.0130724 ++++++++++++++++++to 0.0130724
Heightened Def Con from 0.013343 to 0.013343
Heightened Def Con from 0.014536 to 0.014536
Heightened Def Con from 0.014536 to 0.014536
Heightened Def Con from 0.014536 to 0.014536
Heightened Def Con from 0.0148067 ++to 0.0148067
Heightened Def Con from 0.0148067 ++++++to 0.0148067
Heightened Def Con from 0.0148067 to 0.0148067
Heightened Def Con from 0.0174646 to 0.0174646
Heightened Def Con from 0.0174646 to 0.0174646
Heightened Def Con from 0.0174646 to 0.0174646
Heightened Def Con from 0.0174646 to 0.0174646
Heightened Def Con from 0.0177365 to 0.0177365
Heightened Def Con from 0.0189307 to 0.0189307
Heightened Def Con from 0.0189307 to 0.0189307
Heightened Def Con from 0.0189307 to 0.0189307
Heightened Def Con from 0.0189307 to 0.0189307
Heightened Def Con from 0.0192022 +to 0.0192022
Heightened Def Con from 0.0192022 to 0.0192022
Heightened Def Con from 0.0203953 +to 0.0203953
Heightened Def Con from 0.0203953 to 0.0203953
Heightened Def Con from 0.0203963 to 0.0203963
Heightened Def Con from 0.020667 ++to 0.020667
Heightened Def Con from 0.0233247 +++to 0.0233247
Heightened Def Con from 0.0233247 +++++to 0.0233247
Heightened Def Con from 0.0233247 to 0.0233247
Heightened Def Con from 0.0235938 to 0.0235938
Heightened Def Con from 0.0235963 to 0.0235963
Heightened Def Con from 0.0262555 ++++++++++++++++++to 0.0262555
Heightened Def Con from 0.0265259 to 0.0265259
Heightened Def Con from 0.0294554 to 0.0294554
Heightened Def Con from 0.0306489 to 0.0306489
Heightened Def Con from 0.0306489 to 0.0306489
Heightened Def Con from 0.0321136 ++++++++++++++++++to 0.0321136
Heightened Def Con from 0.0323842 to 0.0323842
Heightened Def Con from 0.0338498 ++++to 0.0338498
Heightened Def Con from 0.0338498 to 0.0338498
Heightened Def Con from 0.035042 ++to 0.035042
Heightened Def Con from 0.035042 to 0.035042
Heightened Def Con from 0.035042 to 0.035042
Heightened Def Con from 0.0367797 to 0.0367797
Heightened Def Con from 0.0394369 to 0.0394369
Heightened Def Con from 0.0394369 +to 0.0394369
Heightened Def Con from 0.0394369 +++++to 0.0394369
Heightened Def Con from 0.0394369 to 0.0394369
Heightened Def Con from 0.0397085 to 0.0397085
Heightened Def Con from 0.0423658 to 0.0423658
Heightened Def Con from 0.0452959 +++++to 0.0452959
Heightened Def Con from 0.0452959 to 0.0452959
Heightened Def Con from 0.0452959 +to 0.0452959
Heightened Def Con from 0.0470329 to 0.0470329
Heightened Def Con from 0.0482265 to 0.0482265
Heightened Def Con from 0.0482265 to 0.0482265
Heightened Def Con from 0.0499617 ++to 0.0499617
Heightened Def Con from 0.0499617 to 0.0499617
Heightened Def Con from 0.0501649 to 0.0501649
Heightened Def Con from 0.0501649 +++++to 0.0501649
Heightened Def Con from 0.0501649 to 0.0501649

Date: Sat Nov 07 20:21:03 2020
Total elapsed time: 946.203 seconds.

tnom = 27
temp = 27
method = modified trap
totiter = 8714392
traniter = 8712380
tranpoints = 4196746
accept = 4089696
rejected = 107227
matrix size = 392
fillins = 494
solver = Normal
Thread vector: 46.4/20.6[8] 21.1/5.6[8] 36.9/5.4[8] 1.6/18.1[1]  2592/500
Matrix Compiler1: 42.29 KB object code size  19.3/9.2/[3.5]
Matrix Compiler2: 35.48 KB object code size  14.9/25.4/[2.5]

