Circuit: * D:\AUV Capstone\AUV-Senior-Design\Mark\WPT Sims\TX RX Complex.asc

C4: Increased Cpar to 1e-009
C3: Increased Cpar to 1.32e-009
Direct Newton iteration failed to find .op point.  (Use ".option noopiter" to skip.)
Starting Gmin stepping
Gmin = 10
Gmin = 1.07374
vernier = 0.5
vernier = 0.666667
Gmin = 0.375229
vernier = 0.888888
vernier = 1
Gmin = 0.0567082
Gmin = 0.006089
vernier = 0.5
Gmin = 0.00102156
vernier = 0.25
vernier = 0.125
vernier = 0.0625
vernier = 0.03125
Gmin = 0.00099805
vernier = 0.015625
vernier = 0.0078125
vernier = 0.00390625
vernier = 0.00195313
Gmin = 0.00100047
vernier = 0.000976563
vernier = 0.000488281
Gmin = 0
Gmin stepping failed

Starting source stepping with srcstepmethod=0
Source Step = 3.0303%
Source Step = 33.3333%
Source Step = 63.6364%
Source Step = 93.9394%
Source stepping succeeded in finding the operating point.

Heightened Def Con from 0.00308979 to 0.00308979
Heightened Def Con from 0.00308979 to 0.00308979
Heightened Def Con from 0.00308979 to 0.00308979
Heightened Def Con from 0.00308979 ++to 0.00308979
Heightened Def Con from 0.00308979 to 0.00308979
Heightened Def Con from 0.00428588 to 0.00428588
Heightened Def Con from 0.00428588 to 0.00428588
Heightened Def Con from 0.00575257 to 0.00575257
Heightened Def Con from 0.00602445 to 0.00602445
Heightened Def Con from 0.00602445 ++to 0.00602445
Heightened Def Con from 0.00602445 ++to 0.00602445
Heightened Def Con from 0.00602445 +++to 0.00602445
Heightened Def Con from 0.00602445 to 0.00602445
Heightened Def Con from 0.00722081 ++to 0.00722081
Heightened Def Con from 0.00722081 to 0.00722081
Heightened Def Con from 0.00749271 +to 0.00749271
Heightened Def Con from 0.00749271 +++to 0.00749271
Heightened Def Con from 0.00749271 to 0.00749271
Heightened Def Con from 0.00868833 to 0.00868833
Heightened Def Con from 0.00868833 to 0.00868833
Heightened Def Con from 0.0101554 +++++to 0.0101554
Heightened Def Con from 0.0101554 +to 0.0101554
Heightened Def Con from 0.0104268 to 0.0104268
Heightened Def Con from 0.0116221 to 0.0116221
Heightened Def Con from 0.0116221 to 0.0116221
Heightened Def Con from 0.0116221 to 0.0116221
Heightened Def Con from 0.0116221 to 0.0116221
Heightened Def Con from 0.0116221 to 0.0116221
Heightened Def Con from 0.0116221 to 0.0116221
Heightened Def Con from 0.0118935 +++++to 0.0118935
Heightened Def Con from 0.0118935 +++++to 0.0118935
Heightened Def Con from 0.0118935 +++++to 0.0118935
Heightened Def Con from 0.0118935 +++++to 0.0118935
Heightened Def Con from 0.0118935 to 0.0118935
Heightened Def Con from 0.0145549 to 0.0145549
Heightened Def Con from 0.0145549 ++to 0.0145549
Heightened Def Con from 0.0145549 to 0.0145549
Heightened Def Con from 0.0145549 to 0.0145549
Heightened Def Con from 0.0145549 to 0.0145549
Heightened Def Con from 0.0189547 to 0.0189547
Heightened Def Con from 0.0204221 to 0.0204221
Heightened Def Con from 0.0204221 to 0.0204221
Heightened Def Con from 0.0204221 ++++to 0.0204221
Heightened Def Con from 0.0204221 to 0.0204221
Heightened Def Con from 0.020694 +++to 0.020694
Heightened Def Con from 0.020694 ++++++to 0.020694
Heightened Def Con from 0.0218892 +to 0.0218892
Heightened Def Con from 0.0221609 to 0.0221609
Heightened Def Con from 0.0221609 ++to 0.0221609
Heightened Def Con from 0.0221609 to 0.0221609
Heightened Def Con from 0.0221609 to 0.0221609
Heightened Def Con from 0.0233566 ++to 0.0233566
Heightened Def Con from 0.0233566 +++++to 0.0233566
Heightened Def Con from 0.0233566 to 0.0233566
Heightened Def Con from 0.023628 to 0.023628
Heightened Def Con from 0.023628 to 0.023628
Heightened Def Con from 0.023628 to 0.023628
Heightened Def Con from 0.0248233 to 0.0248233

Date: Mon Nov 16 21:32:11 2020
Total elapsed time: 523.666 seconds.

tnom = 27
temp = 27
method = modified trap
totiter = 4861996
traniter = 4859937
tranpoints = 2301490
accept = 2224859
rejected = 76755
matrix size = 393
fillins = 493
solver = Normal
Thread vector: 32.5/20.4[8] 23.8/7.3[8] 41.6/11.5[8] 1.3/5.1[1]  2592/500
Matrix Compiler1: 43.19 KB object code size  14.9/16.6/[12.3]
Matrix Compiler2: 35.48 KB object code size  13.7/10.9/[2.9]

