Circuit: * D:\AUV Capstone\AUV-Senior-Design\Mark\WPT Sims\TX RX Complex.asc

C4: Increased Cpar to 1e-009
C3: Increased Cpar to 1.32e-009
Direct Newton iteration failed to find .op point.  (Use ".option noopiter" to skip.)
Starting Gmin stepping
Gmin = 10
Gmin = 1.07374
vernier = 0.5
vernier = 0.666667
Gmin = 0.375229
vernier = 0.888888
vernier = 1
Gmin = 0.0567082
Gmin = 0.006089
vernier = 0.5
Gmin = 0.00102156
vernier = 0.25
vernier = 0.125
vernier = 0.0625
vernier = 0.03125
Gmin = 0.00099805
vernier = 0.015625
vernier = 0.0078125
vernier = 0.00390625
vernier = 0.00195313
Gmin = 0.00100047
vernier = 0.000976563
vernier = 0.000488281
Gmin = 0
Gmin stepping failed

Starting source stepping with srcstepmethod=0
Source Step = 3.0303%
Source Step = 33.3333%
Source Step = 63.6364%
Source Step = 93.9394%
Source stepping succeeded in finding the operating point.

Heightened Def Con from 0.00428288 to 0.00428288
Heightened Def Con from 0.0042839 to 0.0042839
Heightened Def Con from 0.0042839 ++++++++++++++++++to 0.0042839
Heightened Def Con from 0.00575102 to 0.00575102
Heightened Def Con from 0.00575102 to 0.00575102
Heightened Def Con from 0.00575102 to 0.00575102
Heightened Def Con from 0.00602267 to 0.00602267
Heightened Def Con from 0.00602267 +++to 0.00602267
Heightened Def Con from 0.00602267 +++++to 0.00602267
Heightened Def Con from 0.00721842 to 0.00721842
Heightened Def Con from 0.00748982 to 0.00748982
Heightened Def Con from 0.00748982 to 0.00748982
Heightened Def Con from 0.00748982 ++to 0.00748982
Heightened Def Con from 0.00748983 to 0.00748983
Heightened Def Con from 0.0116179 to 0.0116179
Heightened Def Con from 0.0116179 to 0.0116179
Heightened Def Con from 0.0116179 ++++to 0.0116179
Heightened Def Con from 0.0118897 to 0.0118897
Heightened Def Con from 0.0118897 +++++to 0.0118897
Heightened Def Con from 0.0118897 +++to 0.0118897
Heightened Def Con from 0.0118897 to 0.0118897
Heightened Def Con from 0.0118897 to 0.0118897
Heightened Def Con from 0.0133586 +to 0.0133586
Heightened Def Con from 0.0133586 to 0.0133586
Heightened Def Con from 0.0133586 +to 0.0133586
Heightened Def Con from 0.0145547 to 0.0145547
Heightened Def Con from 0.0145547 +to 0.0145547
Heightened Def Con from 0.0148265 ++to 0.0148265
Heightened Def Con from 0.0148265 +++++to 0.0148265
Heightened Def Con from 0.0148265 +++++to 0.0148265
Heightened Def Con from 0.0160214 +++++to 0.0160214
Heightened Def Con from 0.0160214 to 0.0160214
Heightened Def Con from 0.0174873 to 0.0174873
Heightened Def Con from 0.0174873 +++++++to 0.0174873
Heightened Def Con from 0.0174873 ++++to 0.0174873
Heightened Def Con from 0.0174873 to 0.0174873
Heightened Def Con from 0.0177589 +to 0.0177589
Heightened Def Con from 0.0177589 to 0.0177589
Heightened Def Con from 0.0192248 +to 0.0192248
Heightened Def Con from 0.0192248 +to 0.0192248
Heightened Def Con from 0.0192248 +to 0.0192248
Heightened Def Con from 0.0218897 to 0.0218897
Heightened Def Con from 0.0221592 to 0.0221592
Heightened Def Con from 0.0221592 to 0.0221592

Date: Sat Nov 14 21:57:53 2020
Total elapsed time: 356.130 seconds.

tnom = 27
temp = 27
method = modified trap
totiter = 4863560
traniter = 4861496
tranpoints = 2304210
accept = 2226699
rejected = 77630
matrix size = 392
fillins = 495
solver = Normal
Thread vector: 29.9/12.6[8] 14.7/5.9[8] 12.8/4.0[8] 1.1/3.0[1]  2592/500
Matrix Compiler1: 42.30 KB object code size  22.3/11.9/[4.9]
Matrix Compiler2: 35.51 KB object code size  5.3/11.8/[1.9]

