Circuit: * C:\Users\Frank Walsh\Documents\GitHub\AUV-Senior-Design\Frank\chum-bucket\Sims\Battery Charger Buck\Draft1.asc

WARNING: Less than two connections to node NC_01.  This node is used by R:U2:GLR.
Model "u2:nfetls:pmosd": Oxide thickness thinner than recommended for a level 1 MOSFET.
Instance "m:u2:nfetls:2": Length shorter than recommended for a level 1 MOSFET.
Model "u2:nfeths:pmosd": Oxide thickness thinner than recommended for a level 1 MOSFET.
Instance "m:u2:nfeths:2": Length shorter than recommended for a level 1 MOSFET.
Direct Newton iteration for .op point succeeded.
Heightened Def Con from 9.0088e-007 to 9.01005e-007
Heightened Def Con from 1.64715e-006 to 1.6601e-006
Heightened Def Con from 2.5609e-006 to 2.56103e-006
Heightened Def Con from 2.56565e-006 to 2.5762e-006
Heightened Def Con from 3.30715e-006 to 3.32215e-006
Heightened Def Con from 4.22089e-006 to 4.22502e-006
Heightened Def Con from 4.96715e-006 to 4.98165e-006
Heightened Def Con from 5.8809e-006 to 5.8839e-006
Heightened Def Con from 5.88406e-006 to 5.89418e-006
Heightened Def Con from 6.62715e-006 to 6.64165e-006
Heightened Def Con from 7.54091e-006 to 7.54304e-006
Heightened Def Con from 7.54376e-006 to 7.55651e-006
Heightened Def Con from 8.28714e-006 to 8.30164e-006
Heightened Def Con from 9.20092e-006 to 9.20292e-006
Heightened Def Con from 9.20335e-006 to 9.21447e-006
Heightened Def Con from 9.94714e-006 to 9.96152e-006
Heightened Def Con from 1.08609e-005 to 1.08614e-005
Heightened Def Con from 1.16071e-005 to 1.16203e-005
Heightened Def Con from 1.25209e-005 to 1.25214e-005
Heightened Def Con from 1.32671e-005 to 1.32803e-005
Heightened Def Con from 1.4181e-005 to 1.41815e-005
Heightened Def Con from 1.49271e-005 to 1.49403e-005
Heightened Def Con from 1.5841e-005 to 1.58415e-005
Heightened Def Con from 1.65871e-005 to 1.66003e-005
Heightened Def Con from 1.7501e-005 to 1.7502e-005
Heightened Def Con from 1.82471e-005 to 1.82603e-005
Heightened Def Con from 1.9161e-005 to 1.9162e-005
Heightened Def Con from 1.99071e-005 to 1.99203e-005
Heightened Def Con from 2.0821e-005 to 2.0822e-005
Heightened Def Con from 2.0822e-005 to 2.0862e-005
Heightened Def Con from 2.15671e-005 to 2.15803e-005
Heightened Def Con from 2.2481e-005 to 2.24811e-005
Heightened Def Con from 2.32271e-005 to 2.32403e-005
Heightened Def Con from 2.4141e-005 to 2.41412e-005
Heightened Def Con from 2.48871e-005 to 2.49003e-005
Heightened Def Con from 2.5801e-005 to 2.58012e-005
Heightened Def Con from 2.65471e-005 to 2.65593e-005
Heightened Def Con from 2.74611e-005 to 2.74612e-005
Heightened Def Con from 2.82071e-005 to 2.82193e-005
Heightened Def Con from 2.91211e-005 to 2.91212e-005
Heightened Def Con from 2.98671e-005 to 2.98793e-005
Heightened Def Con from 3.07811e-005 to 3.07812e-005
Heightened Def Con from 3.15271e-005 to 3.15393e-005
Heightened Def Con from 3.24411e-005 to 3.24412e-005
Heightened Def Con from 3.31871e-005 to 3.31993e-005
Heightened Def Con from 3.41011e-005 to 3.41012e-005
Heightened Def Con from 3.48471e-005 to 3.48593e-005
Heightened Def Con from 3.57611e-005 to 3.57612e-005
Heightened Def Con from 3.65071e-005 to 3.65193e-005
Heightened Def Con from 3.74211e-005 to 3.74212e-005
Heightened Def Con from 3.8173e-005 to 3.81811e-005
Heightened Def Con from 3.90811e-005 to 3.90812e-005
Heightened Def Con from 3.98271e-005 to 3.98403e-005
Heightened Def Con from 4.07411e-005 to 4.07412e-005
Heightened Def Con from 4.14871e-005 to 4.15003e-005
Heightened Def Con from 4.24011e-005 to 4.24012e-005
Heightened Def Con from 4.31471e-005 to 4.31603e-005
Heightened Def Con from 4.40611e-005 to 4.40621e-005
Heightened Def Con from 4.40621e-005 to 4.40742e-005
Heightened Def Con from 4.48071e-005 to 4.48202e-005
Heightened Def Con from 4.57211e-005 to 4.57221e-005
Heightened Def Con from 4.57221e-005 to 4.57342e-005
Heightened Def Con from 4.64671e-005 to 4.64803e-005
Heightened Def Con from 4.73811e-005 to 4.73821e-005
Heightened Def Con from 4.73831e-005 to 4.73942e-005
Heightened Def Con from 4.81271e-005 to 4.81403e-005
Heightened Def Con from 4.9041e-005 to 4.9042e-005
Heightened Def Con from 4.97871e-005 to 4.98003e-005
Heightened Def Con from 5.0701e-005 to 5.0702e-005
Heightened Def Con from 5.14471e-005 to 5.14603e-005
Heightened Def Con from 5.2361e-005 to 5.2362e-005
Heightened Def Con from 5.31071e-005 to 5.31203e-005
Heightened Def Con from 5.4021e-005 to 5.40212e-005
Heightened Def Con from 5.47671e-005 to 5.47803e-005
Heightened Def Con from 5.5681e-005 to 5.56812e-005
Heightened Def Con from 5.64271e-005 to 5.64403e-005
Heightened Def Con from 5.7341e-005 to 5.73412e-005
Heightened Def Con from 5.80871e-005 to 5.81003e-005
Heightened Def Con from 5.9001e-005 to 5.90011e-005
Heightened Def Con from 5.97471e-005 to 5.97603e-005
Heightened Def Con from 6.0661e-005 to 6.06611e-005
Heightened Def Con from 6.14071e-005 to 6.14203e-005
Heightened Def Con from 6.2321e-005 to 6.23211e-005
Heightened Def Con from 6.30671e-005 to 6.30803e-005
Heightened Def Con from 6.3981e-005 to 6.39811e-005
Heightened Def Con from 6.47271e-005 to 6.47403e-005
Heightened Def Con from 6.5641e-005 to 6.56411e-005
Heightened Def Con from 6.63871e-005 to 6.64003e-005
Heightened Def Con from 6.7301e-005 to 6.73011e-005
Heightened Def Con from 6.80471e-005 to 6.80603e-005
Heightened Def Con from 6.8961e-005 to 6.89611e-005
Heightened Def Con from 6.97071e-005 to 6.97203e-005
Heightened Def Con from 7.0621e-005 to 7.06211e-005
Heightened Def Con from 7.13671e-005 to 7.13803e-005
Heightened Def Con from 7.2281e-005 to 7.22811e-005
Heightened Def Con from 7.30271e-005 to 7.30403e-005
Heightened Def Con from 7.3941e-005 to 7.39411e-005
Heightened Def Con from 7.46871e-005 to 7.47003e-005
Heightened Def Con from 7.5601e-005 to 7.56011e-005
Heightened Def Con from 7.63471e-005 to 7.63603e-005
Heightened Def Con from 7.7261e-005 to 7.72611e-005
Heightened Def Con from 7.80071e-005 to 7.80203e-005
Heightened Def Con from 7.8921e-005 to 7.89211e-005
Heightened Def Con from 7.96671e-005 to 7.96803e-005
Heightened Def Con from 8.0581e-005 to 8.05811e-005
Heightened Def Con from 8.13271e-005 to 8.13403e-005
Heightened Def Con from 8.2241e-005 to 8.22411e-005
Heightened Def Con from 8.29871e-005 to 8.30003e-005
Heightened Def Con from 8.3901e-005 to 8.39011e-005
Heightened Def Con from 8.46471e-005 to 8.46603e-005
Heightened Def Con from 8.5561e-005 to 8.55611e-005
Heightened Def Con from 8.63071e-005 to 8.63203e-005
Heightened Def Con from 8.7221e-005 to 8.72211e-005
Heightened Def Con from 8.79671e-005 to 8.79803e-005
Heightened Def Con from 8.8881e-005 to 8.8882e-005
Heightened Def Con from 8.96271e-005 to 8.96403e-005
Heightened Def Con from 9.0541e-005 to 9.0542e-005
Heightened Def Con from 9.05431e-005 to 9.05543e-005
Heightened Def Con from 9.12871e-005 to 9.13003e-005
Heightened Def Con from 9.2201e-005 to 9.2202e-005
Heightened Def Con from 9.29471e-005 to 9.29603e-005
Heightened Def Con from 9.3861e-005 to 9.3862e-005
Heightened Def Con from 9.38628e-005 to 9.38749e-005
Heightened Def Con from 9.46071e-005 to 9.46203e-005
Heightened Def Con from 9.5521e-005 to 9.5522e-005
Heightened Def Con from 9.62671e-005 to 9.62803e-005
Heightened Def Con from 9.7181e-005 to 9.7182e-005
Heightened Def Con from 9.71831e-005 to 9.71942e-005
Heightened Def Con from 9.79271e-005 to 9.79403e-005
Heightened Def Con from 9.8841e-005 to 9.8842e-005
Heightened Def Con from 9.95871e-005 to 9.96003e-005
Heightened Def Con from 0.000100501 to 0.000100502
Heightened Def Con from 0.000101247 to 0.00010126
Heightened Def Con from 0.000102161 to 0.000102162
Heightened Def Con from 0.000102907 to 0.00010292
Heightened Def Con from 0.000103821 to 0.000103822
Heightened Def Con from 0.000104567 to 0.00010458
Heightened Def Con from 0.000105481 to 0.000105482
Heightened Def Con from 0.000106227 to 0.00010624
Heightened Def Con from 0.000107141 to 0.000107142
Heightened Def Con from 0.000107887 to 0.0001079
Heightened Def Con from 0.000108801 to 0.000108802
Heightened Def Con from 0.000108803 to 0.000108814
Heightened Def Con from 0.000109547 to 0.00010956
Heightened Def Con from 0.000110461 to 0.000110462
Heightened Def Con from 0.000110463 to 0.000110474
Heightened Def Con from 0.000111207 to 0.00011122
Heightened Def Con from 0.000112121 to 0.000112122
Heightened Def Con from 0.000112867 to 0.00011288
Heightened Def Con from 0.000113781 to 0.000113782
Heightened Def Con from 0.000114527 to 0.00011454
Heightened Def Con from 0.000115441 to 0.000115442
Heightened Def Con from 0.000116187 to 0.0001162
Heightened Def Con from 0.000117101 to 0.000117102
Heightened Def Con from 0.000117103 to 0.000117114
Heightened Def Con from 0.000117847 to 0.00011786
Heightened Def Con from 0.000118761 to 0.000118762
Heightened Def Con from 0.000118763 to 0.000118774
Heightened Def Con from 0.000119507 to 0.00011952
Heightened Def Con from 0.000120421 to 0.000120422
Heightened Def Con from 0.000121167 to 0.00012118
Heightened Def Con from 0.000122081 to 0.000122082
Heightened Def Con from 0.000122083 to 0.000122097
Heightened Def Con from 0.000122827 to 0.00012284
Heightened Def Con from 0.000123741 to 0.000123742
Heightened Def Con from 0.000124487 to 0.0001245
Heightened Def Con from 0.000125401 to 0.000125402
Heightened Def Con from 0.000126147 to 0.00012616
Heightened Def Con from 0.000127061 to 0.000127062
Heightened Def Con from 0.000127807 to 0.00012782
Heightened Def Con from 0.000128721 to 0.000128722
Heightened Def Con from 0.000129467 to 0.00012948
Heightened Def Con from 0.000130381 to 0.000130381
Heightened Def Con from 0.000131127 to 0.00013114
Heightened Def Con from 0.000132041 to 0.000132041
Heightened Def Con from 0.000132787 to 0.0001328
Heightened Def Con from 0.000133701 to 0.000133701
Heightened Def Con from 0.000134447 to 0.00013446
Heightened Def Con from 0.000135361 to 0.000135361
Heightened Def Con from 0.000136107 to 0.00013612
Heightened Def Con from 0.000137021 to 0.000137021
Heightened Def Con from 0.000137767 to 0.00013778
Heightened Def Con from 0.000138681 to 0.000138681
Heightened Def Con from 0.000139427 to 0.00013944
Heightened Def Con from 0.000140341 to 0.000140341
Heightened Def Con from 0.000141087 to 0.0001411
Heightened Def Con from 0.000142001 to 0.000142001
Heightened Def Con from 0.000142747 to 0.00014276
Heightened Def Con from 0.000143661 to 0.000143661
Heightened Def Con from 0.000144407 to 0.00014442
Heightened Def Con from 0.000145321 to 0.000145321
Heightened Def Con from 0.000146067 to 0.00014608
Heightened Def Con from 0.000146981 to 0.000146981
Heightened Def Con from 0.000147727 to 0.00014774
Heightened Def Con from 0.000148641 to 0.000148641
Heightened Def Con from 0.000149387 to 0.0001494
Heightened Def Con from 0.000150301 to 0.000150302
Heightened Def Con from 0.000150303 to 0.000150314
Heightened Def Con from 0.000151047 to 0.00015106
Heightened Def Con from 0.000151961 to 0.000151962
Heightened Def Con from 0.000151963 to 0.000151974
Heightened Def Con from 0.000152707 to 0.00015272
Heightened Def Con from 0.000153621 to 0.000153621
Heightened Def Con from 0.000154367 to 0.00015438
Heightened Def Con from 0.000155281 to 0.000155282
Heightened Def Con from 0.000156027 to 0.00015604
Heightened Def Con from 0.000156941 to 0.000156942
Heightened Def Con from 0.000156943 to 0.000156954
Heightened Def Con from 0.000157687 to 0.0001577
Heightened Def Con from 0.000158601 to 0.000158602
Heightened Def Con from 0.000159347 to 0.00015936
Heightened Def Con from 0.000160261 to 0.000160262
Heightened Def Con from 0.000161007 to 0.00016102
Heightened Def Con from 0.000161921 to 0.000161922
Heightened Def Con from 0.000162667 to 0.00016268
Heightened Def Con from 0.000163581 to 0.000163582
Heightened Def Con from 0.000163583 to 0.000163597
Heightened Def Con from 0.000164327 to 0.00016434
Heightened Def Con from 0.000165241 to 0.000165242
Heightened Def Con from 0.000165243 to 0.000165254
Heightened Def Con from 0.000165987 to 0.000166
Heightened Def Con from 0.000166901 to 0.000166902
Heightened Def Con from 0.000166903 to 0.000166914
Heightened Def Con from 0.000167647 to 0.00016766
Heightened Def Con from 0.000168561 to 0.000168562
Heightened Def Con from 0.000168563 to 0.000168577
Heightened Def Con from 0.000169307 to 0.00016932
Heightened Def Con from 0.000170221 to 0.000170222
Heightened Def Con from 0.000170223 to 0.000170235
Heightened Def Con from 0.000170967 to 0.00017098
Heightened Def Con from 0.000171881 to 0.000171882
Heightened Def Con from 0.000171883 to 0.000171897
Heightened Def Con from 0.000172627 to 0.00017264
Heightened Def Con from 0.000173541 to 0.000173542
Heightened Def Con from 0.000173543 to 0.000173557
Heightened Def Con from 0.000174287 to 0.0001743
Heightened Def Con from 0.000175201 to 0.000175202
Heightened Def Con from 0.000175203 to 0.000175217
Heightened Def Con from 0.000175947 to 0.00017596
Heightened Def Con from 0.000176861 to 0.000176862
Heightened Def Con from 0.000176863 to 0.000176877
Heightened Def Con from 0.000177607 to 0.00017762
Heightened Def Con from 0.000178521 to 0.000178522
Heightened Def Con from 0.000178523 to 0.000178535
Heightened Def Con from 0.000179267 to 0.00017928
Heightened Def Con from 0.000180181 to 0.000180182
Heightened Def Con from 0.000180183 to 0.000180197
Heightened Def Con from 0.000180927 to 0.00018094
Heightened Def Con from 0.000181841 to 0.000181842
Heightened Def Con from 0.000181843 to 0.000181857
Heightened Def Con from 0.000182587 to 0.0001826
Heightened Def Con from 0.000183501 to 0.000183502
Heightened Def Con from 0.000184247 to 0.00018426
Heightened Def Con from 0.000185161 to 0.000185162
Heightened Def Con from 0.000185163 to 0.000185177
Heightened Def Con from 0.000185907 to 0.00018592
Heightened Def Con from 0.000186821 to 0.000186822
Heightened Def Con from 0.000186823 to 0.000186834
Heightened Def Con from 0.000187567 to 0.00018758
Heightened Def Con from 0.000188481 to 0.000188482
Heightened Def Con from 0.000189227 to 0.00018924
Heightened Def Con from 0.000190141 to 0.000190142
Heightened Def Con from 0.000190143 to 0.000190154
Heightened Def Con from 0.000190887 to 0.0001909
Heightened Def Con from 0.000191801 to 0.000191802
Heightened Def Con from 0.000192547 to 0.00019256
Heightened Def Con from 0.000193461 to 0.000193462
Heightened Def Con from 0.000193463 to 0.000193474
Heightened Def Con from 0.000194207 to 0.00019422
Heightened Def Con from 0.000195121 to 0.000195122
Heightened Def Con from 0.000195123 to 0.000195134
Heightened Def Con from 0.000195867 to 0.00019588
Heightened Def Con from 0.000196781 to 0.000196782
Heightened Def Con from 0.000197527 to 0.00019754
Heightened Def Con from 0.000198441 to 0.000198442
Heightened Def Con from 0.000199187 to 0.0001992
Heightened Def Con from 0.000200101 to 0.000200102
Heightened Def Con from 0.000200847 to 0.00020086
Heightened Def Con from 0.000201761 to 0.000201762
Heightened Def Con from 0.000202507 to 0.00020252
Heightened Def Con from 0.000203421 to 0.000203422
Heightened Def Con from 0.000204167 to 0.00020418
Heightened Def Con from 0.000205081 to 0.000205082
Heightened Def Con from 0.000205827 to 0.00020584
Heightened Def Con from 0.000206741 to 0.000206742
Heightened Def Con from 0.000207487 to 0.0002075
Heightened Def Con from 0.000208401 to 0.000208402
Heightened Def Con from 0.000209147 to 0.00020916
Heightened Def Con from 0.000210061 to 0.000210062
Heightened Def Con from 0.000210807 to 0.00021082
Heightened Def Con from 0.000211721 to 0.000211722
Heightened Def Con from 0.000212467 to 0.00021248
Heightened Def Con from 0.000213381 to 0.000213382
Heightened Def Con from 0.000214127 to 0.00021414
Heightened Def Con from 0.000215041 to 0.000215042
Heightened Def Con from 0.000215043 to 0.000215054
Heightened Def Con from 0.000215787 to 0.0002158
Heightened Def Con from 0.000216701 to 0.000216702
Heightened Def Con from 0.000217447 to 0.00021746
Heightened Def Con from 0.000218361 to 0.000218362
Heightened Def Con from 0.000219107 to 0.00021912
Heightened Def Con from 0.000220021 to 0.000220022
Heightened Def Con from 0.000220767 to 0.00022078
Heightened Def Con from 0.000221681 to 0.000221682
Heightened Def Con from 0.000222427 to 0.00022244
Heightened Def Con from 0.000223341 to 0.000223342
Heightened Def Con from 0.000224087 to 0.0002241
Heightened Def Con from 0.000225001 to 0.000225002
Heightened Def Con from 0.000225747 to 0.00022576
Heightened Def Con from 0.000226661 to 0.000226662
Heightened Def Con from 0.000227407 to 0.00022742
Heightened Def Con from 0.000228321 to 0.000228322
Heightened Def Con from 0.000229067 to 0.00022908
Heightened Def Con from 0.000229981 to 0.000229982
Heightened Def Con from 0.000230727 to 0.00023074
Heightened Def Con from 0.000231641 to 0.000231642
Heightened Def Con from 0.000231643 to 0.000231654
Heightened Def Con from 0.000232387 to 0.0002324
Heightened Def Con from 0.000233301 to 0.000233302
Heightened Def Con from 0.000234047 to 0.00023406
Heightened Def Con from 0.000234961 to 0.000234962
Heightened Def Con from 0.000235707 to 0.00023572
Heightened Def Con from 0.000236621 to 0.000236622
Heightened Def Con from 0.000236622 to 0.000236622

Date: Fri Oct 30 10:31:18 2020
Total elapsed time: 45.144 seconds.

tnom = 27
temp = 27
method = modified trap
totiter = 2729142
traniter = 2729105
tranpoints = 691027
accept = 508275
rejected = 183076
matrix size = 42
fillins = 28
solver = Normal
Matrix Compiler1: 4.64 KB object code size  1.4/1.2/[0.4]
Matrix Compiler2: off  [0.7]/1.1/1.7

