Circuit: * C:\Users\frwalsh\OneDrive - Tesla\Documents\GitHub\AUV-Senior-Design\Frank\chum-bucket\Sims\Draft1.asc

WARNING: Less than two connections to node NC_01.  This node is used by R:U1:GLR.
Model "u1:nfetls:pmosd": Oxide thickness thinner than recommended for a level 1 MOSFET.
Instance "m:u1:nfetls:2": Length shorter than recommended for a level 1 MOSFET.
Model "u1:nfeths:pmosd": Oxide thickness thinner than recommended for a level 1 MOSFET.
Instance "m:u1:nfeths:2": Length shorter than recommended for a level 1 MOSFET.
Direct Newton iteration for .op point succeeded.
Heightened Def Con from 8.78364e-007 to 8.79364e-007
Heightened Def Con from 8.79364e-007 to 8.82489e-007
Heightened Def Con from 1.72671e-006 to 1.72884e-006
Heightened Def Con from 1.72982e-006 to 1.73082e-006
Heightened Def Con from 1.73082e-006 to 1.73198e-006
Heightened Def Con from 2.53869e-006 to 2.5427e-006
Heightened Def Con from 2.54276e-006 to 2.55976e-006
Heightened Def Con from 3.38671e-006 to 3.38884e-006
Heightened Def Con from 3.38983e-006 to 3.38995e-006
Heightened Def Con from 3.38995e-006 +to 3.38995e-006
Heightened Def Con from 3.38995e-006 +to 3.38995e-006
Heightened Def Con from 3.38995e-006 to 3.38995e-006
Heightened Def Con from 3.38995e-006 to 3.38995e-006
Heightened Def Con from 3.38995e-006 +to 3.38995e-006
Heightened Def Con from 3.38995e-006 +to 3.38995e-006
Heightened Def Con from 3.38995e-006 to 3.38995e-006
Heightened Def Con from 3.38995e-006 to 3.38995e-006
Heightened Def Con from 3.38995e-006 to 3.38995e-006
Heightened Def Con from 4.199e-006 to 4.20312e-006
Heightened Def Con from 5.04671e-006 to 5.04884e-006
Heightened Def Con from 5.04983e-006 to 5.05083e-006
Heightened Def Con from 5.85958e-006 to 5.8627e-006
Heightened Def Con from 6.70671e-006 to 6.70884e-006
Heightened Def Con from 6.70983e-006 to 6.70996e-006
Heightened Def Con from 6.70996e-006 to 6.70996e-006
Heightened Def Con from 6.70996e-006 ++to 6.70996e-006
Heightened Def Con from 6.70996e-006 to 6.70996e-006
Heightened Def Con from 6.70996e-006 to 6.70996e-006
Heightened Def Con from 6.70996e-006 to 6.70996e-006
Heightened Def Con from 6.70996e-006 to 6.70996e-006
Heightened Def Con from 6.70996e-006 to 6.70996e-006
Heightened Def Con from 6.70996e-006 +to 6.70996e-006
Heightened Def Con from 6.70996e-006 ++to 6.70996e-006
Heightened Def Con from 6.70996e-006 to 6.70996e-006
Heightened Def Con from 6.70996e-006 to 6.70996e-006
Heightened Def Con from 6.70996e-006 +to 6.70996e-006
Heightened Def Con from 6.70996e-006 to 6.70996e-006
Heightened Def Con from 6.70996e-006 to 6.70996e-006
Heightened Def Con from 6.70996e-006 to 6.70996e-006
Heightened Def Con from 6.70996e-006 +to 6.70996e-006
Heightened Def Con from 6.70996e-006 to 6.70996e-006
Heightened Def Con from 6.70996e-006 to 6.70996e-006
Heightened Def Con from 6.70996e-006 to 6.70996e-006
Heightened Def Con from 6.70996e-006 to 6.70996e-006
Heightened Def Con from 6.70996e-006 to 6.70996e-006
Heightened Def Con from 6.70996e-006 +++to 6.70996e-006
Heightened Def Con from 6.70996e-006 to 6.70996e-006
Heightened Def Con from 6.70996e-006 +to 6.70996e-006
Heightened Def Con from 6.70996e-006 to 6.70996e-006
Heightened Def Con from 6.70996e-006 to 6.70996e-006
Heightened Def Con from 6.70996e-006 to 6.70996e-006
Heightened Def Con from 6.70996e-006 to 6.70996e-006
Heightened Def Con from 6.70996e-006 ++++to 6.70996e-006
Heightened Def Con from 6.70996e-006 to 6.70996e-006
Heightened Def Con from 6.70996e-006 to 6.70996e-006
Heightened Def Con from 6.70996e-006 +to 6.70996e-006
Heightened Def Con from 6.70996e-006 ++to 6.70996e-006
Heightened Def Con from 6.70996e-006 to 6.70996e-006
Heightened Def Con from 6.70996e-006 +++++++to 6.70996e-006
Heightened Def Con from 6.70996e-006 to 6.70996e-006
Heightened Def Con from 6.70996e-006 ++to 6.70996e-006
Heightened Def Con from 6.70996e-006 to 6.70996e-006
Heightened Def Con from 6.70996e-006 to 6.70996e-006
Heightened Def Con from 6.70996e-006 +to 6.70996e-006
Heightened Def Con from 6.70996e-006 to 6.70996e-006
Heightened Def Con from 6.70996e-006 +++to 6.70996e-006
Heightened Def Con from 6.70996e-006 to 6.70996e-006
Heightened Def Con from 6.70996e-006 to 6.70996e-006
Heightened Def Con from 6.70996e-006 +to 6.70996e-006
Heightened Def Con from 6.70996e-006 ++++++++to 6.70996e-006
Heightened Def Con from 6.70996e-006 to 6.70996e-006
Heightened Def Con from 6.70996e-006 to 6.70996e-006
Heightened Def Con from 6.70996e-006 to 6.70996e-006
Heightened Def Con from 6.70996e-006 +to 6.70996e-006
Heightened Def Con from 6.70996e-006 to 6.70996e-006
Heightened Def Con from 6.70996e-006 to 6.70996e-006
Heightened Def Con from 6.70996e-006 +to 6.70996e-006
Heightened Def Con from 6.70996e-006 to 6.70996e-006
Heightened Def Con from 6.70996e-006 to 6.70996e-006
Heightened Def Con from 6.70996e-006 ++to 6.70996e-006
Heightened Def Con from 6.70996e-006 ++++to 6.70996e-006
Heightened Def Con from 6.70996e-006 to 6.70996e-006
Heightened Def Con from 6.70996e-006 to 6.70996e-006
Heightened Def Con from 6.70996e-006 +to 6.70996e-006
Heightened Def Con from 6.70996e-006 to 6.70996e-006
Heightened Def Con from 6.70996e-006 to 6.70996e-006
Heightened Def Con from 6.70996e-006 +to 6.70996e-006
Heightened Def Con from 6.70996e-006 to 6.70996e-006
Heightened Def Con from 6.70996e-006 to 6.70996e-006
Heightened Def Con from 6.70996e-006 to 6.70996e-006
Heightened Def Con from 6.70996e-006 to 6.70996e-006
Heightened Def Con from 6.70996e-006 to 6.70996e-006
Heightened Def Con from 6.70996e-006 to 6.70996e-006
Heightened Def Con from 6.70996e-006 +to 6.70996e-006
Heightened Def Con from 6.70996e-006 to 6.70996e-006
Heightened Def Con from 6.70996e-006 +to 6.70996e-006
Heightened Def Con from 6.70996e-006 to 6.70996e-006
Heightened Def Con from 6.70996e-006 to 6.70996e-006
Heightened Def Con from 6.70996e-006 to 6.70996e-006
Heightened Def Con from 6.70996e-006 +to 6.70996e-006
Heightened Def Con from 6.70996e-006 to 6.70996e-006
Heightened Def Con from 6.70996e-006 to 6.70996e-006
Heightened Def Con from 6.70996e-006 +to 6.70996e-006
Heightened Def Con from 6.70996e-006 +to 6.70996e-006
Heightened Def Con from 6.70996e-006 to 6.70996e-006
Heightened Def Con from 6.70996e-006 +++to 6.70996e-006
Heightened Def Con from 6.70996e-006 to 6.70996e-006
Heightened Def Con from 6.70996e-006 to 6.70996e-006
Heightened Def Con from 6.70996e-006 +++to 6.70996e-006
Heightened Def Con from 6.70996e-006 +to 6.70996e-006
Heightened Def Con from 6.70996e-006 to 6.70996e-006
Heightened Def Con from 6.70996e-006 to 6.70996e-006
Heightened Def Con from 6.70996e-006 to 6.70996e-006
Heightened Def Con from 6.70996e-006 to 6.70996e-006
Heightened Def Con from 6.70996e-006 to 6.70996e-006
Heightened Def Con from 6.70996e-006 to 6.70996e-006
Heightened Def Con from 6.70996e-006 +to 6.70996e-006
Heightened Def Con from 6.70996e-006 to 6.70996e-006
Heightened Def Con from 6.70996e-006 +to 6.70996e-006
Heightened Def Con from 6.70996e-006 +to 6.70996e-006
Heightened Def Con from 6.70996e-006 to 6.70996e-006
Heightened Def Con from 6.70996e-006 to 6.70996e-006
Heightened Def Con from 6.70996e-006 +to 6.70996e-006
Heightened Def Con from 6.70996e-006 to 6.70996e-006
Heightened Def Con from 6.70996e-006 ++++to 6.70996e-006
Heightened Def Con from 6.70996e-006 to 6.70996e-006
Heightened Def Con from 6.70996e-006 +to 6.70996e-006
Heightened Def Con from 6.70996e-006 to 6.70996e-006
Heightened Def Con from 6.70996e-006 to 6.70996e-006
Heightened Def Con from 6.70996e-006 to 6.70996e-006
Heightened Def Con from 6.70996e-006 to 6.70996e-006
Heightened Def Con from 6.70996e-006 to 6.70996e-006
Heightened Def Con from 6.70996e-006 to 6.70996e-006
Heightened Def Con from 6.70996e-006 ++to 6.70996e-006
Heightened Def Con from 6.70996e-006 to 6.70996e-006
Heightened Def Con from 6.70996e-006 to 6.70996e-006
Heightened Def Con from 6.70996e-006 to 6.70996e-006
Heightened Def Con from 6.70996e-006 to 6.70996e-006
Heightened Def Con from 6.70996e-006 to 6.70996e-006
Heightened Def Con from 6.70996e-006 to 6.70996e-006
Heightened Def Con from 6.70996e-006 to 6.70996e-006
Heightened Def Con from 6.70996e-006 to 6.70996e-006
Heightened Def Con from 6.70996e-006 to 6.70996e-006
Heightened Def Con from 6.70996e-006 to 6.70996e-006
Heightened Def Con from 6.70996e-006 to 6.70996e-006
Heightened Def Con from 6.70996e-006 to 6.70996e-006
Heightened Def Con from 6.70996e-006 +++++to 6.70996e-006
Heightened Def Con from 6.70996e-006 to 6.70996e-006
Heightened Def Con from 6.70996e-006 +to 6.70996e-006
Heightened Def Con from 6.70996e-006 +to 6.70996e-006
Heightened Def Con from 6.70996e-006 to 6.70996e-006
Heightened Def Con from 6.70996e-006 to 6.70996e-006
Heightened Def Con from 6.70996e-006 to 6.70996e-006
Heightened Def Con from 6.70996e-006 +to 6.70996e-006
Heightened Def Con from 6.70996e-006 to 6.70996e-006
Heightened Def Con from 6.70996e-006 to 6.70996e-006
Heightened Def Con from 6.70996e-006 to 6.70996e-006
Heightened Def Con from 6.70996e-006 to 6.70996e-006
Heightened Def Con from 6.70996e-006 to 6.70996e-006
Heightened Def Con from 6.70996e-006 to 6.70996e-006
Heightened Def Con from 6.70996e-006 to 6.70996e-006
Heightened Def Con from 6.70996e-006 to 6.70996e-006
Heightened Def Con from 6.70996e-006 to 6.70996e-006
Heightened Def Con from 6.70996e-006 to 6.70996e-006
Heightened Def Con from 6.70996e-006 to 6.70996e-006
Heightened Def Con from 6.70996e-006 +to 6.70996e-006
Heightened Def Con from 6.70996e-006 to 6.70996e-006
Heightened Def Con from 6.70996e-006 to 6.70996e-006
Heightened Def Con from 6.70996e-006 +to 6.70996e-006
Heightened Def Con from 6.70996e-006 to 6.70996e-006
Heightened Def Con from 6.70996e-006 to 6.70996e-006
Heightened Def Con from 6.70996e-006 +++++to 6.70996e-006
Heightened Def Con from 6.70996e-006 +to 6.70996e-006
Heightened Def Con from 6.70996e-006 +++++++++to 6.70996e-006
Heightened Def Con from 6.70996e-006 +to 6.70996e-006
Heightened Def Con from 6.70996e-006 to 6.70996e-006
Heightened Def Con from 6.70996e-006 to 6.70996e-006
Heightened Def Con from 6.70996e-006 +to 6.70996e-006
Heightened Def Con from 6.70996e-006 to 6.70996e-006
Heightened Def Con from 6.70996e-006 ++to 6.70996e-006
Heightened Def Con from 6.70996e-006 to 6.70996e-006
Heightened Def Con from 6.70996e-006 +++++++to 6.70996e-006
Heightened Def Con from 6.70996e-006 to 6.70996e-006
Heightened Def Con from 6.70996e-006 to 6.70996e-006
Heightened Def Con from 6.70996e-006 to 6.70996e-006
Heightened Def Con from 6.70996e-006 ++to 6.70996e-006
Heightened Def Con from 6.70996e-006 ++to 6.70996e-006
Heightened Def Con from 6.70996e-006 +++to 6.70996e-006
Heightened Def Con from 6.70996e-006 to 6.70996e-006
Heightened Def Con from 6.70996e-006 to 6.70996e-006
Heightened Def Con from 6.70996e-006 to 6.70996e-006
Heightened Def Con from 6.70996e-006 to 6.70996e-006
Heightened Def Con from 6.70996e-006 to 6.70996e-006
Heightened Def Con from 6.70996e-006 to 6.70996e-006
Heightened Def Con from 6.70996e-006 to 6.70996e-006
Heightened Def Con from 6.70996e-006 +to 6.70996e-006
Heightened Def Con from 6.70996e-006 to 6.70996e-006
Heightened Def Con from 6.70996e-006 +to 6.70996e-006
Heightened Def Con from 6.70996e-006 to 6.70996e-006
Heightened Def Con from 6.70996e-006 +to 6.70996e-006
Heightened Def Con from 6.70996e-006 to 6.70996e-006
Heightened Def Con from 6.70996e-006 to 6.70996e-006
Heightened Def Con from 6.70996e-006 to 6.70996e-006
Heightened Def Con from 6.70996e-006 to 6.70996e-006
Heightened Def Con from 6.70996e-006 to 6.70996e-006
Heightened Def Con from 6.70996e-006 to 6.70996e-006
Heightened Def Con from 6.70996e-006 to 6.70996e-006
Heightened Def Con from 6.70996e-006 to 6.70996e-006
Heightened Def Con from 6.70996e-006 to 6.70996e-006
Heightened Def Con from 6.70996e-006 to 6.70996e-006
Heightened Def Con from 6.70996e-006 ++to 6.70996e-006
Heightened Def Con from 6.70996e-006 +to 6.70996e-006
Heightened Def Con from 6.70996e-006 ++++++to 6.70996e-006
Heightened Def Con from 6.70996e-006 +++++to 6.70996e-006
Heightened Def Con from 6.70996e-006 +to 6.70996e-006
Heightened Def Con from 6.70996e-006 +to 6.70996e-006
Heightened Def Con from 6.70996e-006 ++++to 6.70996e-006
Heightened Def Con from 6.70996e-006 to 6.70996e-006
Heightened Def Con from 6.70996e-006 to 6.70996e-006
Heightened Def Con from 6.70996e-006 to 6.70996e-006
Heightened Def Con from 6.70996e-006 to 6.70996e-006
Heightened Def Con from 6.70996e-006 to 6.70996e-006
Heightened Def Con from 6.70996e-006 to 6.70996e-006
Heightened Def Con from 6.70996e-006 to 6.70996e-006
Heightened Def Con from 6.70996e-006 +to 6.70996e-006
Heightened Def Con from 6.70996e-006 to 6.70996e-006
Heightened Def Con from 6.70996e-006 to 6.70996e-006
Heightened Def Con from 6.70996e-006 to 6.70996e-006
Heightened Def Con from 6.70996e-006 +to 6.70996e-006
Heightened Def Con from 6.70996e-006 to 6.70996e-006
Heightened Def Con from 6.70996e-006 to 6.70996e-006
Heightened Def Con from 6.70996e-006 to 6.70996e-006
Heightened Def Con from 6.70996e-006 ++++to 6.70996e-006
Heightened Def Con from 6.70996e-006 to 6.70996e-006
Heightened Def Con from 6.70996e-006 to 6.70996e-006
Heightened Def Con from 6.70996e-006 +to 6.70996e-006
Heightened Def Con from 6.70996e-006 to 6.70996e-006
Heightened Def Con from 7.52169e-006 to 7.53869e-006
Heightened Def Con from 8.36671e-006 to 8.36884e-006
Heightened Def Con from 8.36984e-006 to 8.36996e-006
Heightened Def Con from 8.36996e-006 to 8.36996e-006
Heightened Def Con from 8.36996e-006 to 8.36996e-006
Heightened Def Con from 8.36996e-006 to 8.36996e-006
Heightened Def Con from 8.36996e-006 ++to 8.36996e-006
Heightened Def Con from 8.36996e-006 +to 8.36996e-006
Heightened Def Con from 8.36996e-006 +to 8.36996e-006
Heightened Def Con from 8.36996e-006 to 8.36996e-006
Heightened Def Con from 8.36996e-006 ++to 8.36996e-006
Heightened Def Con from 8.36996e-006 to 8.36996e-006
Heightened Def Con from 8.36996e-006 to 8.36996e-006
Heightened Def Con from 8.36996e-006 to 8.36996e-006
Heightened Def Con from 9.18162e-006 to 9.19862e-006
Heightened Def Con from 1.00267e-005 to 1.00288e-005
Heightened Def Con from 1.00298e-005 to 1.003e-005
Heightened Def Con from 1.003e-005 to 1.003e-005
Heightened Def Con from 1.003e-005 to 1.003e-005
Heightened Def Con from 1.003e-005 to 1.003e-005
Heightened Def Con from 1.003e-005 to 1.003e-005
Heightened Def Con from 1.003e-005 to 1.003e-005
Heightened Def Con from 1.003e-005 to 1.003e-005
Heightened Def Con from 1.003e-005 to 1.003e-005
Heightened Def Con from 1.003e-005 ++to 1.003e-005
Heightened Def Con from 1.003e-005 to 1.003e-005
Heightened Def Con from 1.003e-005 ++++to 1.003e-005
Heightened Def Con from 1.003e-005 to 1.003e-005
Heightened Def Con from 1.003e-005 +to 1.003e-005
Heightened Def Con from 1.003e-005 to 1.003e-005
Heightened Def Con from 1.003e-005 to 1.003e-005
Heightened Def Con from 1.003e-005 to 1.003e-005
Heightened Def Con from 1.003e-005 to 1.003e-005
Heightened Def Con from 1.003e-005 +to 1.003e-005
Heightened Def Con from 1.003e-005 +++to 1.003e-005
Heightened Def Con from 1.003e-005 to 1.003e-005
Heightened Def Con from 1.003e-005 to 1.003e-005
Heightened Def Con from 1.003e-005 +to 1.003e-005
Heightened Def Con from 1.003e-005 to 1.003e-005
Heightened Def Con from 1.003e-005 +++++to 1.003e-005
Heightened Def Con from 1.003e-005 ++++++to 1.003e-005
Heightened Def Con from 1.003e-005 to 1.003e-005
Heightened Def Con from 1.003e-005 ++++to 1.003e-005
Heightened Def Con from 1.003e-005 to 1.003e-005
Heightened Def Con from 1.003e-005 to 1.003e-005
Heightened Def Con from 1.003e-005 +to 1.003e-005
Heightened Def Con from 1.16867e-005 to 1.16888e-005
Heightened Def Con from 1.16898e-005 to 1.169e-005
Heightened Def Con from 1.25015e-005 to 1.25185e-005
Heightened Def Con from 1.33467e-005 to 1.33488e-005
Heightened Def Con from 1.33498e-005 to 1.335e-005
Heightened Def Con from 1.41615e-005 to 1.41735e-005
Heightened Def Con from 1.50067e-005 to 1.50088e-005
Heightened Def Con from 1.50098e-005 to 1.501e-005
Heightened Def Con from 1.58214e-005 to 1.58334e-005
Heightened Def Con from 1.66667e-005 to 1.66688e-005
Heightened Def Con from 1.66698e-005 to 1.667e-005
Heightened Def Con from 1.74814e-005 to 1.74934e-005
Heightened Def Con from 1.83267e-005 to 1.83288e-005
Heightened Def Con from 1.83298e-005 to 1.833e-005
Heightened Def Con from 1.91414e-005 to 1.91534e-005
Heightened Def Con from 1.99867e-005 to 1.99888e-005
Heightened Def Con from 2.08014e-005 to 2.08134e-005
Heightened Def Con from 2.16467e-005 to 2.16488e-005
Heightened Def Con from 2.16498e-005 to 2.165e-005
Heightened Def Con from 2.24614e-005 to 2.24734e-005
Heightened Def Con from 2.33067e-005 to 2.33088e-005
Heightened Def Con from 2.33098e-005 to 2.331e-005
Heightened Def Con from 2.41214e-005 to 2.41334e-005
Heightened Def Con from 2.49667e-005 to 2.49688e-005
Heightened Def Con from 2.49698e-005 to 2.497e-005
Heightened Def Con from 2.57815e-005 to 2.57935e-005
Heightened Def Con from 2.66267e-005 to 2.66288e-005
Heightened Def Con from 2.66298e-005 to 2.663e-005
Heightened Def Con from 2.663e-005 +++++to 2.663e-005
Heightened Def Con from 2.663e-005 to 2.663e-005
Heightened Def Con from 2.663e-005 to 2.663e-005
Heightened Def Con from 2.663e-005 ++++to 2.663e-005
Heightened Def Con from 2.663e-005 +to 2.663e-005
Heightened Def Con from 2.663e-005 +++to 2.663e-005
Heightened Def Con from 2.663e-005 ++to 2.663e-005
Heightened Def Con from 2.663e-005 +to 2.663e-005
Heightened Def Con from 2.663e-005 +to 2.663e-005
Heightened Def Con from 2.663e-005 to 2.663e-005
Heightened Def Con from 2.663e-005 to 2.663e-005
Heightened Def Con from 2.663e-005 to 2.663e-005
Heightened Def Con from 2.663e-005 to 2.663e-005
Heightened Def Con from 2.663e-005 +to 2.663e-005
Heightened Def Con from 2.663e-005 to 2.663e-005
Heightened Def Con from 2.663e-005 ++++to 2.663e-005
Heightened Def Con from 2.663e-005 to 2.663e-005
Heightened Def Con from 2.663e-005 to 2.663e-005
Heightened Def Con from 2.663e-005 to 2.663e-005
Heightened Def Con from 2.663e-005 to 2.663e-005
Heightened Def Con from 2.663e-005 +++++to 2.663e-005
Heightened Def Con from 2.663e-005 to 2.663e-005
Heightened Def Con from 2.663e-005 to 2.663e-005
Heightened Def Con from 2.663e-005 +to 2.663e-005
Heightened Def Con from 2.663e-005 to 2.663e-005
Heightened Def Con from 2.74415e-005 to 2.74585e-005
Heightened Def Con from 2.82867e-005 to 2.82888e-005
Heightened Def Con from 2.82898e-005 to 2.829e-005
Heightened Def Con from 2.829e-005 ++++to 2.829e-005
Heightened Def Con from 2.829e-005 to 2.829e-005
Heightened Def Con from 2.829e-005 to 2.829e-005
Heightened Def Con from 2.829e-005 to 2.829e-005
Heightened Def Con from 2.829e-005 to 2.829e-005
Heightened Def Con from 2.829e-005 to 2.829e-005
Heightened Def Con from 2.829e-005 +++to 2.829e-005
Heightened Def Con from 2.829e-005 to 2.829e-005
Heightened Def Con from 2.829e-005 ++to 2.829e-005
Heightened Def Con from 2.829e-005 ++++to 2.829e-005
Heightened Def Con from 2.829e-005 +++to 2.829e-005
Heightened Def Con from 2.829e-005 +to 2.829e-005
Heightened Def Con from 2.829e-005 ++to 2.829e-005
Heightened Def Con from 2.829e-005 +to 2.829e-005
Heightened Def Con from 2.829e-005 to 2.829e-005
Heightened Def Con from 2.829e-005 to 2.829e-005
Heightened Def Con from 2.829e-005 to 2.829e-005
Heightened Def Con from 2.829e-005 to 2.829e-005
Heightened Def Con from 2.829e-005 to 2.829e-005
Heightened Def Con from 2.829e-005 to 2.829e-005
Heightened Def Con from 2.829e-005 to 2.829e-005
Heightened Def Con from 2.91015e-005 to 2.91185e-005
Heightened Def Con from 2.99467e-005 to 2.99488e-005
Heightened Def Con from 2.99498e-005 to 2.995e-005
Heightened Def Con from 2.995e-005 to 2.995e-005
Heightened Def Con from 2.995e-005 to 2.995e-005
Heightened Def Con from 2.995e-005 +++++++to 2.995e-005
Heightened Def Con from 2.995e-005 +to 2.995e-005
Heightened Def Con from 2.995e-005 +to 2.995e-005
Heightened Def Con from 2.995e-005 to 2.995e-005
Heightened Def Con from 2.995e-005 to 2.995e-005
Heightened Def Con from 2.995e-005 ++++to 2.995e-005
Heightened Def Con from 2.995e-005 to 2.995e-005
Heightened Def Con from 2.995e-005 +to 2.995e-005
Heightened Def Con from 2.995e-005 +to 2.995e-005
Heightened Def Con from 2.995e-005 +to 2.995e-005
Heightened Def Con from 2.995e-005 to 2.995e-005
Heightened Def Con from 2.995e-005 to 2.995e-005
Heightened Def Con from 2.995e-005 to 2.995e-005
Heightened Def Con from 2.995e-005 to 2.995e-005
Heightened Def Con from 2.995e-005 +++to 2.995e-005
Heightened Def Con from 2.995e-005 to 2.995e-005
Heightened Def Con from 2.995e-005 ++to 2.995e-005
Heightened Def Con from 2.995e-005 +++to 2.995e-005
Heightened Def Con from 2.995e-005 to 2.995e-005
Heightened Def Con from 2.995e-005 ++++to 2.995e-005
Heightened Def Con from 2.995e-005 to 2.995e-005
Heightened Def Con from 2.995e-005 ++++to 2.995e-005
Heightened Def Con from 2.995e-005 to 2.995e-005
Heightened Def Con from 2.995e-005 +to 2.995e-005
Heightened Def Con from 2.995e-005 to 2.995e-005
Heightened Def Con from 2.995e-005 +to 2.995e-005
Heightened Def Con from 2.995e-005 to 2.995e-005
Heightened Def Con from 2.995e-005 to 2.995e-005
Heightened Def Con from 2.995e-005 +to 2.995e-005
Heightened Def Con from 2.995e-005 to 2.995e-005
Heightened Def Con from 2.995e-005 to 2.995e-005
Heightened Def Con from 2.995e-005 to 2.995e-005
Heightened Def Con from 2.995e-005 to 2.995e-005
Heightened Def Con from 2.995e-005 +++to 2.995e-005
Heightened Def Con from 2.995e-005 +to 2.995e-005
Heightened Def Con from 2.995e-005 to 2.995e-005
Heightened Def Con from 2.995e-005 to 2.995e-005
Heightened Def Con from 2.995e-005 +to 2.995e-005
Heightened Def Con from 2.995e-005 +++to 2.995e-005
Heightened Def Con from 2.995e-005 to 2.995e-005
Heightened Def Con from 2.995e-005 to 2.995e-005
Heightened Def Con from 2.995e-005 to 2.995e-005
Heightened Def Con from 2.995e-005 to 2.995e-005
Heightened Def Con from 2.995e-005 +to 2.995e-005
Heightened Def Con from 2.995e-005 ++++++++to 2.995e-005
Heightened Def Con from 2.995e-005 to 2.995e-005
Heightened Def Con from 2.995e-005 to 2.995e-005
Heightened Def Con from 2.995e-005 +to 2.995e-005
Heightened Def Con from 2.995e-005 to 2.995e-005
Heightened Def Con from 2.995e-005 to 2.995e-005
Heightened Def Con from 2.995e-005 +to 2.995e-005
Heightened Def Con from 2.995e-005 to 2.995e-005
Heightened Def Con from 2.995e-005 to 2.995e-005
Heightened Def Con from 2.995e-005 ++to 2.995e-005
Heightened Def Con from 2.995e-005 to 2.995e-005
Heightened Def Con from 2.995e-005 to 2.995e-005
Heightened Def Con from 2.995e-005 +to 2.995e-005
Heightened Def Con from 2.995e-005 ++++to 2.995e-005
Heightened Def Con from 2.995e-005 +to 2.995e-005
Heightened Def Con from 2.995e-005 +++to 2.995e-005
Heightened Def Con from 2.995e-005 +to 2.995e-005
Heightened Def Con from 2.995e-005 +to 2.995e-005
Heightened Def Con from 2.995e-005 to 2.995e-005
Heightened Def Con from 2.995e-005 to 2.995e-005
Heightened Def Con from 2.995e-005 ++to 2.995e-005
Heightened Def Con from 2.995e-005 ++to 2.995e-005
Heightened Def Con from 2.995e-005 +++to 2.995e-005
Heightened Def Con from 2.995e-005 to 2.995e-005
Heightened Def Con from 2.995e-005 to 2.995e-005
Heightened Def Con from 2.995e-005 to 2.995e-005
Heightened Def Con from 2.995e-005 to 2.995e-005
Heightened Def Con from 2.995e-005 to 2.995e-005
Heightened Def Con from 2.995e-005 +to 2.995e-005
Heightened Def Con from 2.995e-005 ++to 2.995e-005
Heightened Def Con from 2.995e-005 to 2.995e-005
Heightened Def Con from 2.995e-005 ++to 2.995e-005
Heightened Def Con from 2.995e-005 to 2.995e-005
Heightened Def Con from 2.995e-005 +to 2.995e-005
Heightened Def Con from 2.995e-005 +to 2.995e-005
Heightened Def Con from 2.995e-005 to 2.995e-005
Heightened Def Con from 2.995e-005 +++to 2.995e-005
Heightened Def Con from 2.995e-005 ++++++to 2.995e-005
Heightened Def Con from 2.995e-005 to 2.995e-005
Heightened Def Con from 2.995e-005 to 2.995e-005
Heightened Def Con from 2.995e-005 ++to 2.995e-005
Heightened Def Con from 2.995e-005 to 2.995e-005
Heightened Def Con from 2.995e-005 +++to 2.995e-005
Heightened Def Con from 2.995e-005 +++to 2.995e-005
Heightened Def Con from 2.995e-005 to 2.995e-005
Heightened Def Con from 2.995e-005 to 2.995e-005
Heightened Def Con from 2.995e-005 +++++to 2.995e-005
Heightened Def Con from 2.995e-005 to 2.995e-005
Heightened Def Con from 2.995e-005 ++++++++to 2.995e-005
Heightened Def Con from 2.995e-005 to 2.995e-005
Heightened Def Con from 2.995e-005 to 2.995e-005
Heightened Def Con from 2.995e-005 to 2.995e-005
Heightened Def Con from 2.995e-005 +to 2.995e-005
Heightened Def Con from 2.995e-005 to 2.995e-005
Heightened Def Con from 2.995e-005 to 2.995e-005
Heightened Def Con from 2.995e-005 +++to 2.995e-005
Heightened Def Con from 3.07616e-005 to 3.07786e-005
Heightened Def Con from 3.16067e-005 to 3.16088e-005
Heightened Def Con from 3.16098e-005 to 3.161e-005
Heightened Def Con from 3.161e-005 to 3.161e-005
Heightened Def Con from 3.161e-005 +to 3.161e-005
Heightened Def Con from 3.161e-005 +to 3.161e-005
Heightened Def Con from 3.161e-005 to 3.161e-005
Heightened Def Con from 3.161e-005 to 3.161e-005
Heightened Def Con from 3.161e-005 to 3.161e-005
Heightened Def Con from 3.161e-005 +++to 3.161e-005
Heightened Def Con from 3.161e-005 +to 3.161e-005
Heightened Def Con from 3.161e-005 +to 3.161e-005
Heightened Def Con from 3.161e-005 to 3.161e-005
Heightened Def Con from 3.161e-005 to 3.161e-005
Heightened Def Con from 3.161e-005 to 3.161e-005
Heightened Def Con from 3.161e-005 to 3.161e-005
Heightened Def Con from 3.161e-005 to 3.161e-005
Heightened Def Con from 3.161e-005 +to 3.161e-005
Heightened Def Con from 3.161e-005 to 3.161e-005
Heightened Def Con from 3.161e-005 to 3.161e-005
Heightened Def Con from 3.161e-005 to 3.161e-005
Heightened Def Con from 3.161e-005 to 3.161e-005
Heightened Def Con from 3.161e-005 to 3.161e-005
Heightened Def Con from 3.161e-005 to 3.161e-005
Heightened Def Con from 3.161e-005 to 3.161e-005
Heightened Def Con from 3.161e-005 to 3.161e-005
Heightened Def Con from 3.161e-005 to 3.161e-005
Heightened Def Con from 3.161e-005 +to 3.161e-005
Heightened Def Con from 3.161e-005 to 3.161e-005
Heightened Def Con from 3.161e-005 +to 3.161e-005
Heightened Def Con from 3.161e-005 to 3.161e-005
Heightened Def Con from 3.161e-005 +to 3.161e-005
Heightened Def Con from 3.161e-005 +to 3.161e-005
Heightened Def Con from 3.161e-005 to 3.161e-005
Heightened Def Con from 3.161e-005 to 3.161e-005
Heightened Def Con from 3.161e-005 to 3.161e-005
Heightened Def Con from 3.161e-005 +to 3.161e-005
Heightened Def Con from 3.161e-005 +to 3.161e-005
Heightened Def Con from 3.161e-005 ++++to 3.161e-005
Heightened Def Con from 3.161e-005 to 3.161e-005
Heightened Def Con from 3.161e-005 +to 3.161e-005
Heightened Def Con from 3.161e-005 to 3.161e-005
Heightened Def Con from 3.161e-005 to 3.161e-005
Heightened Def Con from 3.161e-005 to 3.161e-005
Heightened Def Con from 3.161e-005 to 3.161e-005
Heightened Def Con from 3.161e-005 +to 3.161e-005
Heightened Def Con from 3.161e-005 +to 3.161e-005
Heightened Def Con from 3.161e-005 +to 3.161e-005
Heightened Def Con from 3.161e-005 to 3.161e-005
Heightened Def Con from 3.161e-005 to 3.161e-005
Heightened Def Con from 3.161e-005 +to 3.161e-005
Heightened Def Con from 3.161e-005 +++to 3.161e-005
Heightened Def Con from 3.161e-005 to 3.161e-005

Date: Fri Jun 26 08:14:19 2020
Total elapsed time: 2.886 seconds.

tnom = 27
temp = 27
method = modified trap
totiter = 358257
traniter = 358217
tranpoints = 72757
accept = 47205
rejected = 26443
matrix size = 39
fillins = 24
solver = Normal
Matrix Compiler1: 4.39 KB object code size  0.8/0.5/[0.2]
Matrix Compiler2: 3.72 KB object code size  0.3/0.5/[0.3]

