Circuit: * C:\Users\frwalsh\OneDrive - Tesla\Documents\GitHub\AUV-Senior-Design\Frank\chum-bucket\Sims\Draft1.asc

WARNING: Node NC_02 is floating.
WARNING: Node NC_03 is floating.
WARNING: Node NC_04 is floating.

WARNING: Less than two connections to node NC_01.  This node is used by R:U1:GLR.
WARNING: Less than two connections to node NC_02.  This node is used by C9.
WARNING: Less than two connections to node NC_03.  This node is used by C5.
WARNING: Less than two connections to node NC_04.  This node is used by C10.
Model "u1:nfetls:pmosd": Oxide thickness thinner than recommended for a level 1 MOSFET.
Instance "m:u1:nfetls:2": Length shorter than recommended for a level 1 MOSFET.
Model "u1:nfeths:pmosd": Oxide thickness thinner than recommended for a level 1 MOSFET.
Instance "m:u1:nfeths:2": Length shorter than recommended for a level 1 MOSFET.
Direct Newton iteration for .op point succeeded.
Heightened Def Con from 8.31044e-007 to 8.31169e-007
Heightened Def Con from 1.64714e-006 to 1.6601e-006
Heightened Def Con from 2.49114e-006 to 2.49126e-006
Heightened Def Con from 3.30714e-006 to 3.31926e-006
Heightened Def Con from 4.15123e-006 to 4.15135e-006
Heightened Def Con from 4.96714e-006 to 4.97926e-006
Heightened Def Con from 5.81133e-006 to 5.81233e-006
Heightened Def Con from 6.62714e-006 to 6.63926e-006
Heightened Def Con from 7.47144e-006 to 7.4851e-006
Heightened Def Con from 8.28714e-006 to 8.29926e-006
Heightened Def Con from 9.13149e-006 to 9.14461e-006
Heightened Def Con from 9.94714e-006 to 9.95926e-006
Heightened Def Con from 1.07914e-005 to 1.08045e-005
Heightened Def Con from 1.16071e-005 to 1.16193e-005
Heightened Def Con from 1.24513e-005 to 1.24513e-005
Heightened Def Con from 1.24513e-005 +to 1.24513e-005
Heightened Def Con from 1.24513e-005 to 1.24513e-005
Heightened Def Con from 1.24513e-005 +to 1.24513e-005
Heightened Def Con from 1.24513e-005 ++to 1.24513e-005
Heightened Def Con from 1.24513e-005 +to 1.24513e-005
Heightened Def Con from 1.32671e-005 to 1.32793e-005
Heightened Def Con from 1.41112e-005 to 1.41114e-005
Heightened Def Con from 1.49271e-005 to 1.49393e-005
Heightened Def Con from 1.57712e-005 to 1.57713e-005
Heightened Def Con from 1.57732e-005 to 1.57843e-005
Heightened Def Con from 1.65871e-005 to 1.66003e-005
Heightened Def Con from 1.74311e-005 to 1.74321e-005
Heightened Def Con from 1.74321e-005 to 1.74442e-005
Heightened Def Con from 1.82471e-005 to 1.82603e-005
Heightened Def Con from 1.9091e-005 to 1.90911e-005
Heightened Def Con from 1.99071e-005 to 1.99381e-005
Heightened Def Con from 2.0751e-005 to 2.07541e-005
Heightened Def Con from 2.15672e-005 to 2.15822e-005
Heightened Def Con from 2.24109e-005 to 2.2411e-005
Heightened Def Con from 2.24164e-005 to 2.24246e-005
Heightened Def Con from 2.32272e-005 to 2.32413e-005
Heightened Def Con from 2.40709e-005 to 2.40829e-005
Heightened Def Con from 2.48872e-005 to 2.49212e-005
Heightened Def Con from 2.57309e-005 to 2.5737e-005
Heightened Def Con from 2.65472e-005 to 2.65772e-005
Heightened Def Con from 2.73909e-005 to 2.7397e-005
Heightened Def Con from 2.82072e-005 to 2.82412e-005
Heightened Def Con from 2.90509e-005 to 2.9051e-005
Heightened Def Con from 2.98672e-005 to 2.98674e-005
Heightened Def Con from 3.07109e-005 to 3.0711e-005
Heightened Def Con from 3.07172e-005 to 3.07243e-005
Heightened Def Con from 3.15272e-005 to 3.15422e-005
Heightened Def Con from 3.23709e-005 to 3.23739e-005
Heightened Def Con from 3.2374e-005 to 3.2412e-005
Heightened Def Con from 3.31871e-005 to 3.32016e-005
Heightened Def Con from 3.40309e-005 to 3.40314e-005
Heightened Def Con from 3.48471e-005 to 3.48603e-005
Heightened Def Con from 3.5691e-005 to 3.56911e-005
Heightened Def Con from 3.65071e-005 to 3.65203e-005
Heightened Def Con from 3.7351e-005 to 3.73512e-005
Heightened Def Con from 3.81671e-005 to 3.81793e-005
Heightened Def Con from 3.90111e-005 to 3.90112e-005
Heightened Def Con from 3.90131e-005 to 3.90242e-005
Heightened Def Con from 3.98271e-005 to 3.98393e-005
Heightened Def Con from 4.06712e-005 to 4.06713e-005
Heightened Def Con from 4.14871e-005 to 4.14993e-005
Heightened Def Con from 4.23312e-005 to 4.23314e-005
Heightened Def Con from 4.23324e-005 to 4.23445e-005
Heightened Def Con from 4.31471e-005 to 4.31593e-005
Heightened Def Con from 4.39913e-005 to 4.39913e-005
Heightened Def Con from 4.48071e-005 to 4.48193e-005
Heightened Def Con from 4.56513e-005 to 4.56513e-005
Heightened Def Con from 4.64671e-005 to 4.64793e-005
Heightened Def Con from 4.73113e-005 to 4.73114e-005
Heightened Def Con from 4.81271e-005 to 4.81393e-005
Heightened Def Con from 4.89712e-005 to 4.89713e-005
Heightened Def Con from 4.89726e-005 to 4.89847e-005
Heightened Def Con from 4.97871e-005 to 4.98002e-005
Heightened Def Con from 5.06312e-005 to 5.06313e-005
Heightened Def Con from 5.14471e-005 to 5.14593e-005
Heightened Def Con from 5.22911e-005 to 5.22913e-005
Heightened Def Con from 5.22935e-005 to 5.23046e-005
Heightened Def Con from 5.31071e-005 to 5.31203e-005
Heightened Def Con from 5.39511e-005 to 5.39521e-005
Heightened Def Con from 5.39521e-005 to 5.39642e-005
Heightened Def Con from 5.47671e-005 to 5.47803e-005
Heightened Def Con from 5.5611e-005 to 5.56111e-005
Heightened Def Con from 5.64271e-005 to 5.64581e-005
Heightened Def Con from 5.7271e-005 to 5.7273e-005
Heightened Def Con from 5.72734e-005 to 5.72845e-005
Heightened Def Con from 5.80871e-005 to 5.81014e-005
Heightened Def Con from 5.89309e-005 to 5.89339e-005
Heightened Def Con from 5.8934e-005 to 5.89442e-005
Heightened Def Con from 5.97471e-005 to 5.97621e-005
Heightened Def Con from 6.05909e-005 to 6.0591e-005
Heightened Def Con from 6.05948e-005 to 6.06065e-005
Heightened Def Con from 6.14072e-005 to 6.14222e-005
Heightened Def Con from 6.22509e-005 to 6.2251e-005
Heightened Def Con from 6.22565e-005 to 6.22646e-005
Heightened Def Con from 6.30672e-005 to 6.30813e-005
Heightened Def Con from 6.39109e-005 to 6.3911e-005
Heightened Def Con from 6.39165e-005 to 6.39246e-005
Heightened Def Con from 6.47272e-005 to 6.47422e-005
Heightened Def Con from 6.55709e-005 to 6.5575e-005
Heightened Def Con from 6.55751e-005 to 6.55842e-005
Heightened Def Con from 6.63872e-005 to 6.64022e-005
Heightened Def Con from 6.72309e-005 to 6.72339e-005
Heightened Def Con from 6.7234e-005 to 6.72442e-005
Heightened Def Con from 6.80471e-005 to 6.80616e-005
Heightened Def Con from 6.88909e-005 to 6.88929e-005
Heightened Def Con from 6.88934e-005 to 6.89045e-005
Heightened Def Con from 6.97071e-005 to 6.97381e-005
Heightened Def Con from 7.0551e-005 to 7.05515e-005
Heightened Def Con from 7.13671e-005 to 7.13803e-005
Heightened Def Con from 7.2211e-005 to 7.2212e-005
Heightened Def Con from 7.22127e-005 to 7.22249e-005
Heightened Def Con from 7.30271e-005 to 7.30403e-005
Heightened Def Con from 7.3871e-005 to 7.38712e-005
Heightened Def Con from 7.46871e-005 to 7.46993e-005
Heightened Def Con from 7.55311e-005 to 7.55312e-005
Heightened Def Con from 7.55333e-005 to 7.55445e-005
Heightened Def Con from 7.63471e-005 to 7.63593e-005
Heightened Def Con from 7.71911e-005 to 7.71913e-005
Heightened Def Con from 7.7193e-005 to 7.72051e-005
Heightened Def Con from 7.80071e-005 to 7.80193e-005
Heightened Def Con from 7.88512e-005 to 7.88513e-005
Heightened Def Con from 7.88527e-005 to 7.88649e-005
Heightened Def Con from 7.96671e-005 to 7.96802e-005
Heightened Def Con from 8.05112e-005 to 8.05113e-005
Heightened Def Con from 8.05126e-005 to 8.05247e-005
Heightened Def Con from 8.13271e-005 to 8.13402e-005
Heightened Def Con from 8.21712e-005 to 8.21713e-005
Heightened Def Con from 8.21726e-005 to 8.21847e-005
Heightened Def Con from 8.29871e-005 to 8.30002e-005
Heightened Def Con from 8.38312e-005 to 8.38313e-005
Heightened Def Con from 8.38327e-005 to 8.38448e-005
Heightened Def Con from 8.46471e-005 to 8.46593e-005
Heightened Def Con from 8.54912e-005 to 8.54913e-005
Heightened Def Con from 8.63071e-005 to 8.63193e-005
Heightened Def Con from 8.71511e-005 to 8.71513e-005
Heightened Def Con from 8.79671e-005 to 8.79802e-005
Heightened Def Con from 8.88111e-005 to 8.88112e-005
Heightened Def Con from 8.96271e-005 to 8.96403e-005
Heightened Def Con from 9.04711e-005 to 9.04721e-005
Heightened Def Con from 9.12929e-005 to 9.1301e-005
Heightened Def Con from 9.2131e-005 to 9.21311e-005
Heightened Def Con from 9.29471e-005 to 9.29603e-005
Heightened Def Con from 9.3791e-005 to 9.37915e-005
Heightened Def Con from 9.46071e-005 to 9.46381e-005
Heightened Def Con from 9.5451e-005 to 9.5453e-005
Heightened Def Con from 9.54534e-005 to 9.54645e-005
Heightened Def Con from 9.62671e-005 to 9.62814e-005
Heightened Def Con from 9.71109e-005 to 9.71141e-005
Heightened Def Con from 9.79271e-005 to 9.79414e-005
Heightened Def Con from 9.87709e-005 to 9.87739e-005
Heightened Def Con from 9.87741e-005 to 9.87842e-005
Heightened Def Con from 9.95871e-005 to 9.96021e-005
Heightened Def Con from 0.000100431 to 0.000100434
Heightened Def Con from 0.000100434 to 0.000100444
Heightened Def Con from 0.000101247 to 0.000101261
Heightened Def Con from 0.000102091 to 0.000102094
Heightened Def Con from 0.000102907 to 0.000102922
Heightened Def Con from 0.000103751 to 0.000103753
Heightened Def Con from 0.000103753 to 0.000103764
Heightened Def Con from 0.000104567 to 0.000104582
Heightened Def Con from 0.000105411 to 0.000105411
Heightened Def Con from 0.000106227 to 0.00010624
Heightened Def Con from 0.000107071 to 0.000107071
Heightened Def Con from 0.000107887 to 0.0001079
Heightened Def Con from 0.000108731 to 0.000108732
Heightened Def Con from 0.000109547 to 0.00010956
Heightened Def Con from 0.000110391 to 0.000110392
Heightened Def Con from 0.000110392 to 0.000110404
Heightened Def Con from 0.000111207 to 0.000111219
Heightened Def Con from 0.000112051 to 0.000112051
Heightened Def Con from 0.000112867 to 0.00011288
Heightened Def Con from 0.000113711 to 0.000113711
Heightened Def Con from 0.000114527 to 0.000114539
Heightened Def Con from 0.000115371 to 0.000115371
Heightened Def Con from 0.000116187 to 0.000116199
Heightened Def Con from 0.000117031 to 0.000117031
Heightened Def Con from 0.000117033 to 0.000117045
Heightened Def Con from 0.000117847 to 0.000117859
Heightened Def Con from 0.000118691 to 0.000118691
Heightened Def Con from 0.000118693 to 0.000118705
Heightened Def Con from 0.000119507 to 0.000119519
Heightened Def Con from 0.000120351 to 0.000120351
Heightened Def Con from 0.000120353 to 0.000120364
Heightened Def Con from 0.000121167 to 0.000121179
Heightened Def Con from 0.000122011 to 0.000122011
Heightened Def Con from 0.000122827 to 0.00012284
Heightened Def Con from 0.000123671 to 0.000123671
Heightened Def Con from 0.000123673 to 0.000123685
Heightened Def Con from 0.000124487 to 0.0001245
Heightened Def Con from 0.000125331 to 0.000125331
Heightened Def Con from 0.000126147 to 0.00012616
Heightened Def Con from 0.000126991 to 0.000126992
Heightened Def Con from 0.000126993 to 0.000127004
Heightened Def Con from 0.000127807 to 0.00012782
Heightened Def Con from 0.000128651 to 0.000128651
Heightened Def Con from 0.000129467 to 0.00012948
Heightened Def Con from 0.000130311 to 0.000130311
Heightened Def Con from 0.000131127 to 0.000131158
Heightened Def Con from 0.000131971 to 0.000131971
Heightened Def Con from 0.000132787 to 0.000132818
Heightened Def Con from 0.000133631 to 0.000133633
Heightened Def Con from 0.000133633 to 0.000133644
Heightened Def Con from 0.000134447 to 0.000134462
Heightened Def Con from 0.000135291 to 0.000135293
Heightened Def Con from 0.000135293 to 0.000135305
Heightened Def Con from 0.000136107 to 0.000136122
Heightened Def Con from 0.000136951 to 0.000136953
Heightened Def Con from 0.000136953 to 0.000136965
Heightened Def Con from 0.000137767 to 0.000137782
Heightened Def Con from 0.000139427 to 0.000139458
Heightened Def Con from 0.000140271 to 0.000140271
Heightened Def Con from 0.000141087 to 0.000141118
Heightened Def Con from 0.000141931 to 0.000141931
Heightened Def Con from 0.000142747 to 0.00014276
Heightened Def Con from 0.000143591 to 0.000143591
Heightened Def Con from 0.000144407 to 0.00014442
Heightened Def Con from 0.000145251 to 0.000145252
Heightened Def Con from 0.000146067 to 0.00014608
Heightened Def Con from 0.000146911 to 0.000146912
Heightened Def Con from 0.000146912 to 0.000146924
Heightened Def Con from 0.000147727 to 0.00014774
Heightened Def Con from 0.000148571 to 0.000148571
Heightened Def Con from 0.000149387 to 0.000149399
Heightened Def Con from 0.000150231 to 0.000150231
Heightened Def Con from 0.000150233 to 0.000150245
Heightened Def Con from 0.000151047 to 0.00015106
Heightened Def Con from 0.000151891 to 0.000151891
Heightened Def Con from 0.000151893 to 0.000151904
Heightened Def Con from 0.000152707 to 0.00015272
Heightened Def Con from 0.000153551 to 0.000153551
Heightened Def Con from 0.000154367 to 0.00015438
Heightened Def Con from 0.000155211 to 0.000155211
Heightened Def Con from 0.000155213 to 0.000155224
Heightened Def Con from 0.000156027 to 0.00015604
Heightened Def Con from 0.000156871 to 0.000156871
Heightened Def Con from 0.000157687 to 0.0001577
Heightened Def Con from 0.000158531 to 0.000158531
Heightened Def Con from 0.000158533 to 0.000158545
Heightened Def Con from 0.000159347 to 0.000159359
Heightened Def Con from 0.000160191 to 0.000160191
Heightened Def Con from 0.000161007 to 0.00016102
Heightened Def Con from 0.000161851 to 0.000161852
Heightened Def Con from 0.000161852 to 0.000161864
Heightened Def Con from 0.000162667 to 0.00016268
Heightened Def Con from 0.000163511 to 0.000163512
Heightened Def Con from 0.000163513 to 0.000163524
Heightened Def Con from 0.000164327 to 0.00016434
Heightened Def Con from 0.000165171 to 0.000165171
Heightened Def Con from 0.000165987 to 0.000166
Heightened Def Con from 0.000166831 to 0.000166831
Heightened Def Con from 0.000167647 to 0.00016766
Heightened Def Con from 0.000168491 to 0.000168491
Heightened Def Con from 0.000169307 to 0.000169338
Heightened Def Con from 0.000170151 to 0.000170151
Heightened Def Con from 0.000170967 to 0.000170998
Heightened Def Con from 0.000171811 to 0.000171811
Heightened Def Con from 0.000172627 to 0.000172658
Heightened Def Con from 0.000173471 to 0.000173471
Heightened Def Con from 0.000174287 to 0.000174318
Heightened Def Con from 0.000175131 to 0.000175131
Heightened Def Con from 0.000175947 to 0.000175978
Heightened Def Con from 0.000176791 to 0.000176791
Heightened Def Con from 0.000177607 to 0.00017762
Heightened Def Con from 0.000178451 to 0.000178451
Heightened Def Con from 0.000179267 to 0.00017928
Heightened Def Con from 0.000180111 to 0.000180111
Heightened Def Con from 0.000180927 to 0.00018094
Heightened Def Con from 0.000181771 to 0.000181772
Heightened Def Con from 0.000182587 to 0.0001826
Heightened Def Con from 0.000183431 to 0.000183432
Heightened Def Con from 0.000183432 to 0.000183444
Heightened Def Con from 0.000184247 to 0.00018426
Heightened Def Con from 0.000185091 to 0.000185091
Heightened Def Con from 0.000185907 to 0.000185919
Heightened Def Con from 0.000186751 to 0.000186751
Heightened Def Con from 0.000187567 to 0.000187579
Heightened Def Con from 0.000188411 to 0.000188411
Heightened Def Con from 0.000189227 to 0.00018924
Heightened Def Con from 0.000190071 to 0.000190071
Heightened Def Con from 0.000190073 to 0.000190085
Heightened Def Con from 0.000190887 to 0.0001909
Heightened Def Con from 0.000191731 to 0.000191731
Heightened Def Con from 0.000191733 to 0.000191745
Heightened Def Con from 0.000192547 to 0.00019256
Heightened Def Con from 0.000193391 to 0.000193391
Heightened Def Con from 0.000193394 to 0.000193405
Heightened Def Con from 0.000194207 to 0.000194219
Heightened Def Con from 0.000195051 to 0.000195051
Heightened Def Con from 0.000195867 to 0.00019588
Heightened Def Con from 0.000196711 to 0.000196711
Heightened Def Con from 0.000197527 to 0.00019754
Heightened Def Con from 0.000198371 to 0.000198372
Heightened Def Con from 0.000198372 to 0.000198384
Heightened Def Con from 0.000199187 to 0.0001992
Heightened Def Con from 0.000200031 to 0.000200032
Heightened Def Con from 0.000200033 to 0.000200044
Heightened Def Con from 0.000200847 to 0.00020086
Heightened Def Con from 0.000201691 to 0.000201691
Heightened Def Con from 0.000202507 to 0.00020252
Heightened Def Con from 0.000203351 to 0.000203351
Heightened Def Con from 0.000204167 to 0.00020418
Heightened Def Con from 0.000205011 to 0.000205011
Heightened Def Con from 0.000205827 to 0.00020584
Heightened Def Con from 0.000206671 to 0.000206671
Heightened Def Con from 0.000207487 to 0.0002075
Heightened Def Con from 0.000208331 to 0.000208331
Heightened Def Con from 0.000209147 to 0.000209178
Heightened Def Con from 0.000209991 to 0.000209991
Heightened Def Con from 0.000210807 to 0.00021082
Heightened Def Con from 0.000211651 to 0.000211651
Heightened Def Con from 0.000212467 to 0.00021248
Heightened Def Con from 0.000213311 to 0.000213311
Heightened Def Con from 0.000214127 to 0.00021414
Heightened Def Con from 0.000214971 to 0.000214971
Heightened Def Con from 0.000215787 to 0.0002158
Heightened Def Con from 0.000216631 to 0.000216631
Heightened Def Con from 0.000217447 to 0.00021746
Heightened Def Con from 0.000218291 to 0.000218292
Heightened Def Con from 0.000219107 to 0.00021912
Heightened Def Con from 0.000219951 to 0.000219952
Heightened Def Con from 0.000219952 to 0.000219964
Heightened Def Con from 0.000220767 to 0.00022078
Heightened Def Con from 0.000221611 to 0.000221611
Heightened Def Con from 0.000222427 to 0.00022244
Heightened Def Con from 0.000223271 to 0.000223271
Heightened Def Con from 0.000224087 to 0.0002241
Heightened Def Con from 0.000224931 to 0.000224931
Heightened Def Con from 0.000225747 to 0.000225759
Heightened Def Con from 0.000226591 to 0.000226591
Heightened Def Con from 0.000227407 to 0.000227419
Heightened Def Con from 0.000228251 to 0.000228251
Heightened Def Con from 0.000229067 to 0.00022908
Heightened Def Con from 0.000229911 to 0.000229911
Heightened Def Con from 0.000230727 to 0.00023074
Heightened Def Con from 0.000231571 to 0.000231571
Heightened Def Con from 0.000232387 to 0.0002324
Heightened Def Con from 0.000233231 to 0.000233232
Heightened Def Con from 0.000233232 to 0.000233244
Heightened Def Con from 0.000234047 to 0.00023406
Heightened Def Con from 0.000234891 to 0.000234892
Heightened Def Con from 0.000234892 to 0.000234904
Heightened Def Con from 0.000235707 to 0.00023572
Heightened Def Con from 0.000236551 to 0.000236552
Heightened Def Con from 0.000237367 to 0.00023738
Heightened Def Con from 0.000238211 to 0.000238212
Heightened Def Con from 0.000239027 to 0.00023904
Heightened Def Con from 0.000239871 to 0.000239871
Heightened Def Con from 0.000240687 to 0.0002407
Heightened Def Con from 0.000241531 to 0.000241531
Heightened Def Con from 0.000242347 to 0.00024236
Heightened Def Con from 0.000243191 to 0.000243191
Heightened Def Con from 0.000244007 to 0.00024402
Heightened Def Con from 0.000244851 to 0.000244851
Heightened Def Con from 0.000245667 to 0.00024568
Heightened Def Con from 0.000246511 to 0.000246511
Heightened Def Con from 0.000247327 to 0.00024734
Heightened Def Con from 0.000248171 to 0.000248171
Heightened Def Con from 0.000248987 to 0.000249
Heightened Def Con from 0.000249831 to 0.000249831
Heightened Def Con from 0.000250647 to 0.00025066
Heightened Def Con from 0.000251491 to 0.000251491
Heightened Def Con from 0.000252307 to 0.00025232
Heightened Def Con from 0.000253151 to 0.000253152
Heightened Def Con from 0.000253153 to 0.000253165
Heightened Def Con from 0.000253967 to 0.00025398
Heightened Def Con from 0.000254811 to 0.000254812
Heightened Def Con from 0.000255627 to 0.00025564
Heightened Def Con from 0.000256471 to 0.000256472
Heightened Def Con from 0.000257287 to 0.0002573
Heightened Def Con from 0.000258131 to 0.000258132
Heightened Def Con from 0.000258132 to 0.000258144
Heightened Def Con from 0.000258947 to 0.00025896
Heightened Def Con from 0.000259791 to 0.000259791
Heightened Def Con from 0.000260607 to 0.00026062
Heightened Def Con from 0.000261451 to 0.000261451
Heightened Def Con from 0.000262267 to 0.00026228
Heightened Def Con from 0.000263111 to 0.000263111
Heightened Def Con from 0.000263927 to 0.00026394
Heightened Def Con from 0.000264771 to 0.000264771
Heightened Def Con from 0.000265587 to 0.0002656
Heightened Def Con from 0.000266431 to 0.000266431
Heightened Def Con from 0.000267247 to 0.00026726
Heightened Def Con from 0.000268091 to 0.000268092
Heightened Def Con from 0.000268092 to 0.000268104
Heightened Def Con from 0.000268907 to 0.00026892
Heightened Def Con from 0.000269751 to 0.000269752
Heightened Def Con from 0.000269752 to 0.000269764
Heightened Def Con from 0.000270567 to 0.00027058
Heightened Def Con from 0.000271411 to 0.000271412
Heightened Def Con from 0.000272227 to 0.00027224
Heightened Def Con from 0.000273071 to 0.000273072
Heightened Def Con from 0.000273073 to 0.000273084
Heightened Def Con from 0.000273887 to 0.0002739
Heightened Def Con from 0.000274731 to 0.000274732
Heightened Def Con from 0.000274733 to 0.000274747
Heightened Def Con from 0.000275547 to 0.00027556
Heightened Def Con from 0.000276391 to 0.000276391
Heightened Def Con from 0.000277207 to 0.00027722
Heightened Def Con from 0.000278051 to 0.000278051
Heightened Def Con from 0.000278867 to 0.00027888
Heightened Def Con from 0.000279711 to 0.000279711
Heightened Def Con from 0.000280527 to 0.00028054
Heightened Def Con from 0.000281371 to 0.000281371
Heightened Def Con from 0.000282187 to 0.0002822
Heightened Def Con from 0.000283031 to 0.000283031
Heightened Def Con from 0.000283847 to 0.00028386
Heightened Def Con from 0.000284691 to 0.000284691
Heightened Def Con from 0.000285507 to 0.00028552
Heightened Def Con from 0.000286351 to 0.000286351
Heightened Def Con from 0.000287167 to 0.00028718
Heightened Def Con from 0.000288011 to 0.000288011
Heightened Def Con from 0.000288827 to 0.00028884
Heightened Def Con from 0.000289671 to 0.000289672
Heightened Def Con from 0.000289673 to 0.000289684
Heightened Def Con from 0.000290487 to 0.0002905
Heightened Def Con from 0.000291331 to 0.000291332
Heightened Def Con from 0.000292147 to 0.00029216
Heightened Def Con from 0.000292991 to 0.000292992
Heightened Def Con from 0.000293807 to 0.00029382
Heightened Def Con from 0.000294651 to 0.000294652
Heightened Def Con from 0.000294652 to 0.000294664
Heightened Def Con from 0.000295467 to 0.00029548
Heightened Def Con from 0.000296311 to 0.000296312
Heightened Def Con from 0.000296312 to 0.000296324
Heightened Def Con from 0.000297127 to 0.00029714
Heightened Def Con from 0.000297971 to 0.000297972
Heightened Def Con from 0.000297972 to 0.000297984
Heightened Def Con from 0.000298787 to 0.0002988
Heightened Def Con from 0.000299631 to 0.000299631
Heightened Def Con from 0.000300447 to 0.00030046
Heightened Def Con from 0.000301291 to 0.000301291
Heightened Def Con from 0.000302107 to 0.00030212
Heightened Def Con from 0.000302951 to 0.000302952
Heightened Def Con from 0.000302952 to 0.000302964
Heightened Def Con from 0.000303767 to 0.00030378
Heightened Def Con from 0.000304611 to 0.000304612
Heightened Def Con from 0.000304612 to 0.000304624
Heightened Def Con from 0.000305427 to 0.00030544
Heightened Def Con from 0.000306271 to 0.000306272
Heightened Def Con from 0.000306272 to 0.000306284
Heightened Def Con from 0.000307087 to 0.0003071
Heightened Def Con from 0.000307931 to 0.000307932
Heightened Def Con from 0.000308747 to 0.00030876
Heightened Def Con from 0.000309591 to 0.000309592
Heightened Def Con from 0.000310407 to 0.00031042
Heightened Def Con from 0.000311251 to 0.000311252
Heightened Def Con from 0.000311253 to 0.000311264
Heightened Def Con from 0.000312067 to 0.00031208
Heightened Def Con from 0.000312911 to 0.000312911
Heightened Def Con from 0.000313727 to 0.00031374
Heightened Def Con from 0.000314571 to 0.000314571
Heightened Def Con from 0.000315387 to 0.0003154
Heightened Def Con from 0.000316231 to 0.000316231
Heightened Def Con from 0.000317047 to 0.00031706
Heightened Def Con from 0.000317891 to 0.000317891
Heightened Def Con from 0.000318707 to 0.00031872
Heightened Def Con from 0.000319551 to 0.000319551
Heightened Def Con from 0.000320367 to 0.00032038
Heightened Def Con from 0.000321211 to 0.000321211
Heightened Def Con from 0.000322027 to 0.00032204
Heightened Def Con from 0.000322871 to 0.000322871
Heightened Def Con from 0.000323687 to 0.0003237
Heightened Def Con from 0.000324531 to 0.000324532
Heightened Def Con from 0.000324533 to 0.000324544
Heightened Def Con from 0.000325347 to 0.00032536
Heightened Def Con from 0.000326191 to 0.000326192
Heightened Def Con from 0.000327007 to 0.00032702
Heightened Def Con from 0.000327851 to 0.000327852
Heightened Def Con from 0.000328667 to 0.00032868
Heightened Def Con from 0.000329511 to 0.000329512
Heightened Def Con from 0.000330327 to 0.00033034
Heightened Def Con from 0.000331171 to 0.000331172
Heightened Def Con from 0.000331172 to 0.000331184
Heightened Def Con from 0.000331987 to 0.000332
Heightened Def Con from 0.000332831 to 0.000332832
Heightened Def Con from 0.000332832 to 0.000332844
Heightened Def Con from 0.000333647 to 0.00033366
Heightened Def Con from 0.000334491 to 0.000334492
Heightened Def Con from 0.000334492 to 0.000334504
Heightened Def Con from 0.000335307 to 0.00033532
Heightened Def Con from 0.000336151 to 0.000336152
Heightened Def Con from 0.000336152 to 0.000336164
Heightened Def Con from 0.000336967 to 0.00033698
Heightened Def Con from 0.000337811 to 0.000337812
Heightened Def Con from 0.000337812 to 0.000337824
Heightened Def Con from 0.000338627 to 0.00033864
Heightened Def Con from 0.000339471 to 0.000339472
Heightened Def Con from 0.000339472 to 0.000339484
Heightened Def Con from 0.000340287 to 0.0003403
Heightened Def Con from 0.000341131 to 0.000341132
Heightened Def Con from 0.000341132 to 0.000341144
Heightened Def Con from 0.000341947 to 0.00034196
Heightened Def Con from 0.000342791 to 0.000342792
Heightened Def Con from 0.000342793 to 0.000342807
Heightened Def Con from 0.000343607 to 0.00034362
Heightened Def Con from 0.000344451 to 0.000344452
Heightened Def Con from 0.000344453 to 0.000344464
Heightened Def Con from 0.000345267 to 0.00034528
Heightened Def Con from 0.000346111 to 0.000346112
Heightened Def Con from 0.000346113 to 0.000346124
Heightened Def Con from 0.000346927 to 0.00034694
Heightened Def Con from 0.000347771 to 0.000347772
Heightened Def Con from 0.000347773 to 0.000347784
Heightened Def Con from 0.000348587 to 0.0003486
Heightened Def Con from 0.000349431 to 0.000349432
Heightened Def Con from 0.000349433 to 0.000349444
Heightened Def Con from 0.000350247 to 0.00035026
Heightened Def Con from 0.000351091 to 0.000351091
Heightened Def Con from 0.000351907 to 0.00035192
Heightened Def Con from 0.000352751 to 0.000352751
Heightened Def Con from 0.000353567 to 0.00035358
Heightened Def Con from 0.000354411 to 0.000354411
Heightened Def Con from 0.000355227 to 0.00035524
Heightened Def Con from 0.000356071 to 0.000356071
Heightened Def Con from 0.000356887 to 0.0003569
Heightened Def Con from 0.000357731 to 0.000357731
Heightened Def Con from 0.000358547 to 0.00035856
Heightened Def Con from 0.000359391 to 0.000359392
Heightened Def Con from 0.000359393 to 0.000359404
Heightened Def Con from 0.000360207 to 0.00036022
Heightened Def Con from 0.000361051 to 0.000361052
Heightened Def Con from 0.000361053 to 0.000361064
Heightened Def Con from 0.000361867 to 0.00036188
Heightened Def Con from 0.000362711 to 0.000362712
Heightened Def Con from 0.000363527 to 0.00036354
Heightened Def Con from 0.000364371 to 0.000364372
Heightened Def Con from 0.000365187 to 0.0003652
Heightened Def Con from 0.000366031 to 0.000366032
Heightened Def Con from 0.000366033 to 0.000366044
Heightened Def Con from 0.000366847 to 0.00036686
Heightened Def Con from 0.000367691 to 0.000367692
Heightened Def Con from 0.000368507 to 0.00036852
Heightened Def Con from 0.000369351 to 0.000369352
Heightened Def Con from 0.000369352 to 0.000369364
Heightened Def Con from 0.000370167 to 0.00037018
Heightened Def Con from 0.000371011 to 0.000371012
Heightened Def Con from 0.000371012 to 0.000371024
Heightened Def Con from 0.000371827 to 0.00037184
Heightened Def Con from 0.000372671 to 0.000372672
Heightened Def Con from 0.000372672 to 0.000372684
Heightened Def Con from 0.000373487 to 0.0003735
Heightened Def Con from 0.000374331 to 0.000374332
Heightened Def Con from 0.000374332 to 0.000374344
Heightened Def Con from 0.000375147 to 0.00037516
Heightened Def Con from 0.000375991 to 0.000375992
Heightened Def Con from 0.000375992 to 0.000376004
Heightened Def Con from 0.000376807 to 0.00037682
Heightened Def Con from 0.000377651 to 0.000377652
Heightened Def Con from 0.000377652 to 0.000377664
Heightened Def Con from 0.000378467 to 0.00037848
Heightened Def Con from 0.000379311 to 0.000379312
Heightened Def Con from 0.000380127 to 0.00038014
Heightened Def Con from 0.000380971 to 0.000380972
Heightened Def Con from 0.000381787 to 0.0003818
Heightened Def Con from 0.000382631 to 0.000382632
Heightened Def Con from 0.000383447 to 0.00038346
Heightened Def Con from 0.000384291 to 0.000384292
Heightened Def Con from 0.000384293 to 0.000384305
Heightened Def Con from 0.000385107 to 0.00038512
Heightened Def Con from 0.000385951 to 0.000385952
Heightened Def Con from 0.000385953 to 0.000385964
Heightened Def Con from 0.000386767 to 0.00038678
Heightened Def Con from 0.000387611 to 0.000387612
Heightened Def Con from 0.000388427 to 0.00038844
Heightened Def Con from 0.000389271 to 0.000389272
Heightened Def Con from 0.000389273 to 0.000389284
Heightened Def Con from 0.000390087 to 0.0003901
Heightened Def Con from 0.000390931 to 0.000390931
Heightened Def Con from 0.000391747 to 0.00039176
Heightened Def Con from 0.000392591 to 0.000392591
Heightened Def Con from 0.000393407 to 0.00039342
Heightened Def Con from 0.000394251 to 0.000394252
Heightened Def Con from 0.000394253 to 0.000394264
Heightened Def Con from 0.000395067 to 0.00039508
Heightened Def Con from 0.000395911 to 0.000395912
Heightened Def Con from 0.000395913 to 0.000395924
Heightened Def Con from 0.000396727 to 0.00039674
Heightened Def Con from 0.000397571 to 0.000397572
Heightened Def Con from 0.000397573 to 0.000397584
Heightened Def Con from 0.000398387 to 0.0003984
Heightened Def Con from 0.000399231 to 0.000399232
Heightened Def Con from 0.000400047 to 0.00040006
Heightened Def Con from 0.000400891 to 0.000400892
Heightened Def Con from 0.000400893 to 0.000400904
Heightened Def Con from 0.000401707 to 0.00040172
Heightened Def Con from 0.000402551 to 0.000402552
Heightened Def Con from 0.000402553 to 0.000402565
Heightened Def Con from 0.000403367 to 0.00040338
Heightened Def Con from 0.000404211 to 0.000404212
Heightened Def Con from 0.000405027 to 0.00040504
Heightened Def Con from 0.000405871 to 0.000405872
Heightened Def Con from 0.000406687 to 0.0004067
Heightened Def Con from 0.000407531 to 0.000407532
Heightened Def Con from 0.000407532 to 0.000407544
Heightened Def Con from 0.000408347 to 0.00040836
Heightened Def Con from 0.000409191 to 0.000409192
Heightened Def Con from 0.000409192 to 0.000409204
Heightened Def Con from 0.000410007 to 0.00041002
Heightened Def Con from 0.000410851 to 0.000410852
Heightened Def Con from 0.000410852 to 0.000410864
Heightened Def Con from 0.000411667 to 0.00041168
Heightened Def Con from 0.000412511 to 0.000412512
Heightened Def Con from 0.000413327 to 0.00041334
Heightened Def Con from 0.000414171 to 0.000414172
Heightened Def Con from 0.000414987 to 0.000415
Heightened Def Con from 0.000415831 to 0.000415832
Heightened Def Con from 0.000416647 to 0.00041666
Heightened Def Con from 0.000417491 to 0.000417492
Heightened Def Con from 0.000418307 to 0.00041832
Heightened Def Con from 0.000419151 to 0.000419152
Heightened Def Con from 0.000419967 to 0.00041998
Heightened Def Con from 0.000420811 to 0.000420812
Heightened Def Con from 0.000420813 to 0.000420824
Heightened Def Con from 0.000421627 to 0.00042164
Heightened Def Con from 0.000422471 to 0.000422472
Heightened Def Con from 0.000422473 to 0.000422484
Heightened Def Con from 0.000423287 to 0.0004233
Heightened Def Con from 0.000424131 to 0.000424132
Heightened Def Con from 0.000424947 to 0.00042496
Heightened Def Con from 0.000425791 to 0.000425792
Heightened Def Con from 0.000425793 to 0.000425805
Heightened Def Con from 0.000426607 to 0.00042662
Heightened Def Con from 0.000427451 to 0.000427452
Heightened Def Con from 0.000428267 to 0.00042828
Heightened Def Con from 0.000429111 to 0.000429112
Heightened Def Con from 0.000429113 to 0.000429124
Heightened Def Con from 0.000429927 to 0.00042994
Heightened Def Con from 0.000430771 to 0.000430772
Heightened Def Con from 0.000431587 to 0.0004316
Heightened Def Con from 0.000432431 to 0.000432432
Heightened Def Con from 0.000432433 to 0.000432445
Heightened Def Con from 0.000433247 to 0.00043326
Heightened Def Con from 0.000434091 to 0.000434092
Heightened Def Con from 0.000434093 to 0.000434104
Heightened Def Con from 0.000434907 to 0.00043492
Heightened Def Con from 0.000435751 to 0.000435752
Heightened Def Con from 0.000435753 to 0.000435764
Heightened Def Con from 0.000436567 to 0.00043658
Heightened Def Con from 0.000437411 to 0.000437412
Heightened Def Con from 0.000438227 to 0.00043824
Heightened Def Con from 0.000439071 to 0.000439072
Heightened Def Con from 0.000439073 to 0.000439084
Heightened Def Con from 0.000439887 to 0.0004399
Heightened Def Con from 0.000440731 to 0.000440732
Heightened Def Con from 0.000441547 to 0.00044156
Heightened Def Con from 0.000442391 to 0.000442392
Heightened Def Con from 0.000442393 to 0.000442405
Heightened Def Con from 0.000443207 to 0.00044322
Heightened Def Con from 0.000444051 to 0.000444052
Heightened Def Con from 0.000444053 to 0.000444065
Heightened Def Con from 0.000444867 to 0.00044488
Heightened Def Con from 0.000445711 to 0.000445712
Heightened Def Con from 0.000446527 to 0.00044654
Heightened Def Con from 0.000447371 to 0.000447372
Heightened Def Con from 0.000447372 to 0.000447384
Heightened Def Con from 0.000448187 to 0.0004482
Heightened Def Con from 0.000449031 to 0.000449032
Heightened Def Con from 0.000449847 to 0.00044986
Heightened Def Con from 0.000450691 to 0.000450692
Heightened Def Con from 0.000450693 to 0.000450704
Heightened Def Con from 0.000451507 to 0.00045152
Heightened Def Con from 0.000452351 to 0.000452352
Heightened Def Con from 0.000452353 to 0.000452364
Heightened Def Con from 0.000453167 to 0.00045318
Heightened Def Con from 0.000454011 to 0.000454012
Heightened Def Con from 0.000454827 to 0.00045484
Heightened Def Con from 0.000455671 to 0.000455672
Heightened Def Con from 0.000455673 to 0.000455684
Heightened Def Con from 0.000456487 to 0.0004565
Heightened Def Con from 0.000457331 to 0.000457332
Heightened Def Con from 0.000457333 to 0.000457344
Heightened Def Con from 0.000458147 to 0.00045816
Heightened Def Con from 0.000458991 to 0.000458992
Heightened Def Con from 0.000458993 to 0.000459005
Heightened Def Con from 0.000459807 to 0.00045982
Heightened Def Con from 0.000460651 to 0.000460652
Heightened Def Con from 0.000461467 to 0.00046148
Heightened Def Con from 0.000462311 to 0.000462312
Heightened Def Con from 0.000462313 to 0.000462324
Heightened Def Con from 0.000463127 to 0.00046314
Heightened Def Con from 0.000463971 to 0.000463972
Heightened Def Con from 0.000464787 to 0.0004648
Heightened Def Con from 0.000465631 to 0.000465632
Heightened Def Con from 0.000465633 to 0.000465644
Heightened Def Con from 0.000466447 to 0.00046646
Heightened Def Con from 0.000467291 to 0.000467292
Heightened Def Con from 0.000468107 to 0.00046812
Heightened Def Con from 0.000468951 to 0.000468952
Heightened Def Con from 0.000469767 to 0.00046978
Heightened Def Con from 0.000470611 to 0.000470612
Heightened Def Con from 0.000471427 to 0.00047144
Heightened Def Con from 0.000472271 to 0.000472272
Heightened Def Con from 0.000473087 to 0.0004731
Heightened Def Con from 0.000473931 to 0.000473932
Heightened Def Con from 0.000474747 to 0.00047476
Heightened Def Con from 0.000475591 to 0.000475592
Heightened Def Con from 0.000476407 to 0.00047642
Heightened Def Con from 0.000477251 to 0.000477252
Heightened Def Con from 0.000478067 to 0.00047808
Heightened Def Con from 0.000478911 to 0.000478912
Heightened Def Con from 0.000479727 to 0.00047974
Heightened Def Con from 0.000480571 to 0.000480572
Heightened Def Con from 0.000480573 to 0.000480584
Heightened Def Con from 0.000481387 to 0.0004814
Heightened Def Con from 0.000482231 to 0.000482232
Heightened Def Con from 0.000482233 to 0.000482244
Heightened Def Con from 0.000483047 to 0.00048306
Heightened Def Con from 0.000483891 to 0.000483892
Heightened Def Con from 0.000484707 to 0.00048472
Heightened Def Con from 0.000485551 to 0.000485552
Heightened Def Con from 0.000485552 to 0.000485564
Heightened Def Con from 0.000486367 to 0.00048638
Heightened Def Con from 0.000487211 to 0.000487212
Heightened Def Con from 0.000487213 to 0.000487225
Heightened Def Con from 0.000488027 to 0.00048804
Heightened Def Con from 0.000488871 to 0.000488872
Heightened Def Con from 0.000489687 to 0.0004897
Heightened Def Con from 0.000490531 to 0.000490532
Heightened Def Con from 0.000490533 to 0.000490544
Heightened Def Con from 0.000491347 to 0.00049136
Heightened Def Con from 0.000492191 to 0.000492192
Heightened Def Con from 0.000493007 to 0.00049302
Heightened Def Con from 0.000493851 to 0.000493852
Heightened Def Con from 0.000493853 to 0.000493864
Heightened Def Con from 0.000494667 to 0.00049468
Heightened Def Con from 0.000495511 to 0.000495512
Heightened Def Con from 0.000496327 to 0.00049634
Heightened Def Con from 0.000497171 to 0.000497172
Heightened Def Con from 0.000497173 to 0.000497187
Heightened Def Con from 0.000497993 to 0.000498001
Heightened Def Con from 0.000498831 to 0.000498832
Heightened Def Con from 0.000498833 to 0.000498844
Heightened Def Con from 0.000499647 to 0.00049966
Heightened Def Con from 0.000500491 to 0.000500492
Heightened Def Con from 0.000501307 to 0.00050132
Heightened Def Con from 0.000502151 to 0.000502152
Heightened Def Con from 0.000502153 to 0.000502165
Heightened Def Con from 0.000502967 to 0.00050298
Heightened Def Con from 0.000503811 to 0.000503812
Heightened Def Con from 0.000503813 to 0.000503825
Heightened Def Con from 0.000504627 to 0.00050464
Heightened Def Con from 0.000505471 to 0.000505472
Heightened Def Con from 0.000506287 to 0.0005063
Heightened Def Con from 0.000507131 to 0.000507132
Heightened Def Con from 0.000507947 to 0.00050796
Heightened Def Con from 0.000508791 to 0.000508792
Heightened Def Con from 0.000508793 to 0.000508804
Heightened Def Con from 0.000509607 to 0.00050962
Heightened Def Con from 0.000510451 to 0.000510452
Heightened Def Con from 0.000510453 to 0.000510464
Heightened Def Con from 0.000511267 to 0.00051128
Heightened Def Con from 0.000512111 to 0.000512112
Heightened Def Con from 0.000512927 to 0.00051294
Heightened Def Con from 0.000513771 to 0.000513772
Heightened Def Con from 0.000514587 to 0.0005146
Heightened Def Con from 0.000515431 to 0.000515432
Heightened Def Con from 0.000515433 to 0.000515445
Heightened Def Con from 0.000516247 to 0.00051626
Heightened Def Con from 0.000517091 to 0.000517092
Heightened Def Con from 0.000517093 to 0.000517105
Heightened Def Con from 0.000517907 to 0.00051792
Heightened Def Con from 0.000518751 to 0.000518752
Heightened Def Con from 0.000519567 to 0.00051958
Heightened Def Con from 0.000520411 to 0.000520412
Heightened Def Con from 0.000521227 to 0.00052124
Heightened Def Con from 0.000522071 to 0.000522072
Heightened Def Con from 0.000522073 to 0.000522084
Heightened Def Con from 0.000522887 to 0.0005229
Heightened Def Con from 0.000523731 to 0.000523732
Heightened Def Con from 0.000524547 to 0.00052456
Heightened Def Con from 0.000525391 to 0.000525392
Heightened Def Con from 0.000526207 to 0.00052622
Heightened Def Con from 0.000527051 to 0.000527052
Heightened Def Con from 0.000527867 to 0.00052788
Heightened Def Con from 0.000528711 to 0.000528712
Heightened Def Con from 0.000528713 to 0.000528724
Heightened Def Con from 0.000529527 to 0.00052954
Heightened Def Con from 0.000530371 to 0.000530372
Heightened Def Con from 0.000531187 to 0.0005312
Heightened Def Con from 0.000532031 to 0.000532032
Heightened Def Con from 0.000532033 to 0.000532044
Heightened Def Con from 0.000532847 to 0.00053286
Heightened Def Con from 0.000533691 to 0.000533692
Heightened Def Con from 0.000534507 to 0.00053452
Heightened Def Con from 0.000535351 to 0.000535352
Heightened Def Con from 0.000535353 to 0.000535365
Heightened Def Con from 0.000536167 to 0.00053618
Heightened Def Con from 0.000537011 to 0.000537012
Heightened Def Con from 0.000537013 to 0.000537025
Heightened Def Con from 0.000537827 to 0.00053784
Heightened Def Con from 0.000538671 to 0.000538672
Heightened Def Con from 0.000539487 to 0.0005395
Heightened Def Con from 0.000540331 to 0.000540332
Heightened Def Con from 0.000541147 to 0.00054116
Heightened Def Con from 0.000541991 to 0.000541992
Heightened Def Con from 0.000542807 to 0.00054282
Heightened Def Con from 0.000543651 to 0.000543652
Heightened Def Con from 0.000543653 to 0.000543664
Heightened Def Con from 0.000544467 to 0.00054448
Heightened Def Con from 0.000545311 to 0.000545312
Heightened Def Con from 0.000546127 to 0.00054614
Heightened Def Con from 0.000546971 to 0.000546972
Heightened Def Con from 0.000547787 to 0.0005478
Heightened Def Con from 0.000548631 to 0.000548632
Heightened Def Con from 0.000549447 to 0.00054946
Heightened Def Con from 0.000550291 to 0.000550292
Heightened Def Con from 0.000551107 to 0.00055112
Heightened Def Con from 0.000551951 to 0.000551952
Heightened Def Con from 0.000552767 to 0.00055278
Heightened Def Con from 0.000553611 to 0.000553612
Heightened Def Con from 0.000553613 to 0.000553624
Heightened Def Con from 0.000554427 to 0.00055444
Heightened Def Con from 0.000555271 to 0.000555272
Heightened Def Con from 0.000556087 to 0.0005561
Heightened Def Con from 0.000556931 to 0.000556932
Heightened Def Con from 0.000556933 to 0.000556944
Heightened Def Con from 0.000557747 to 0.00055776
Heightened Def Con from 0.000558591 to 0.000558592
Heightened Def Con from 0.000559407 to 0.00055942
Heightened Def Con from 0.000560251 to 0.000560252
Heightened Def Con from 0.000561067 to 0.00056108
Heightened Def Con from 0.000561911 to 0.000561912
Heightened Def Con from 0.000561913 to 0.000561924
Heightened Def Con from 0.000562727 to 0.00056274
Heightened Def Con from 0.000563571 to 0.000563572
Heightened Def Con from 0.000563573 to 0.000563584
Heightened Def Con from 0.000564387 to 0.0005644
Heightened Def Con from 0.000565231 to 0.000565232
Heightened Def Con from 0.000565233 to 0.000565244
Heightened Def Con from 0.000566047 to 0.00056606
Heightened Def Con from 0.000566891 to 0.000566892
Heightened Def Con from 0.000566892 to 0.000566892

Date: Mon Jun 29 12:12:19 2020
Total elapsed time: 63.399 seconds.

tnom = 27
temp = 27
method = modified trap
totiter = 5712729
traniter = 5712689
tranpoints = 1458035
accept = 1070551
rejected = 388321
matrix size = 42
fillins = 24
solver = Normal
Matrix Compiler1: 4.44 KB object code size  0.8/0.5/[0.2]
Matrix Compiler2: 3.83 KB object code size  0.3/0.6/[0.2]

