Circuit: * C:\Users\Frank Walsh\Documents\GitHub\AUV-Senior-Design\Frank\chum-bucket\Sims\Draft2.asc

Direct Newton iteration for .op point succeeded.

Date: Fri Nov 20 15:27:40 2020
Total elapsed time: 0.601 seconds.

tnom = 27
temp = 27
method = modified trap
totiter = 63566
traniter = 63560
tranpoints = 18374
accept = 14240
rejected = 4134
matrix size = 9
fillins = 1
solver = Normal
Matrix Compiler1: 448 bytes object code size  0.2/0.2/[0.1]
Matrix Compiler2: off  [0.1]/0.2/0.2

