Circuit: * C:\Users\frwalsh\OneDrive - Tesla\Documents\GitHub\AUV-Senior-Design\Frank\chum-bucket\Sims\Draft1.asc

WARNING: Less than two connections to node NC_01.  This node is used by R:U1:GLR.
Model "u1:nfetls:pmosd": Oxide thickness thinner than recommended for a level 1 MOSFET.
Instance "m:u1:nfetls:2": Length shorter than recommended for a level 1 MOSFET.
Model "u1:nfeths:pmosd": Oxide thickness thinner than recommended for a level 1 MOSFET.
Instance "m:u1:nfeths:2": Length shorter than recommended for a level 1 MOSFET.
Direct Newton iteration for .op point succeeded.
Heightened Def Con from 8.30882e-007 to 8.462e-007
Heightened Def Con from 1.64715e-006 to 1.6601e-006
Heightened Def Con from 2.4909e-006 to 2.49503e-006
Heightened Def Con from 2.49522e-006 to 2.50435e-006
Heightened Def Con from 3.30715e-006 to 3.32215e-006
Heightened Def Con from 4.15089e-006 to 4.15502e-006
Heightened Def Con from 4.96715e-006 to 4.98215e-006
Heightened Def Con from 5.8109e-006 to 5.8139e-006
Heightened Def Con from 5.81401e-006 to 5.82414e-006
Heightened Def Con from 6.62715e-006 to 6.64165e-006
Heightened Def Con from 7.47091e-006 to 7.48641e-006
Heightened Def Con from 8.28714e-006 to 8.30164e-006
Heightened Def Con from 9.13093e-006 to 9.13143e-006
Heightened Def Con from 9.94714e-006 to 9.97814e-006
Heightened Def Con from 1.07909e-005 to 1.07914e-005
Heightened Def Con from 1.16071e-005 to 1.16203e-005
Heightened Def Con from 1.2451e-005 to 1.24515e-005
Heightened Def Con from 1.32671e-005 to 1.32803e-005
Heightened Def Con from 1.4111e-005 to 1.4112e-005
Heightened Def Con from 1.49271e-005 to 1.49403e-005
Heightened Def Con from 1.5771e-005 to 1.5772e-005
Heightened Def Con from 1.5772e-005 to 1.5812e-005
Heightened Def Con from 1.65871e-005 to 1.66003e-005
Heightened Def Con from 1.7431e-005 to 1.74311e-005
Heightened Def Con from 1.82471e-005 to 1.82593e-005
Heightened Def Con from 1.90911e-005 to 1.90912e-005
Heightened Def Con from 1.90934e-005 to 1.91045e-005
Heightened Def Con from 1.99071e-005 to 1.99193e-005
Heightened Def Con from 2.07511e-005 to 2.07512e-005
Heightened Def Con from 2.15671e-005 to 2.15793e-005
Heightened Def Con from 2.24111e-005 to 2.24112e-005
Heightened Def Con from 2.2413e-005 to 2.24251e-005
Heightened Def Con from 2.32271e-005 to 2.32393e-005
Heightened Def Con from 2.40711e-005 to 2.40713e-005
Heightened Def Con from 2.40729e-005 to 2.4087e-005
Heightened Def Con from 2.48871e-005 to 2.48993e-005
Heightened Def Con from 2.57312e-005 to 2.57313e-005
Heightened Def Con from 2.57328e-005 to 2.57469e-005
Heightened Def Con from 2.65471e-005 to 2.65593e-005
Heightened Def Con from 2.73912e-005 to 2.73913e-005
Heightened Def Con from 2.73927e-005 to 2.74048e-005
Heightened Def Con from 2.82071e-005 to 2.82193e-005
Heightened Def Con from 2.90512e-005 to 2.90513e-005
Heightened Def Con from 2.98671e-005 to 2.98802e-005
Heightened Def Con from 3.07112e-005 to 3.07113e-005
Heightened Def Con from 3.07127e-005 to 3.07249e-005
Heightened Def Con from 3.15271e-005 to 3.15402e-005
Heightened Def Con from 3.23712e-005 to 3.23713e-005
Heightened Def Con from 3.31871e-005 to 3.31993e-005
Heightened Def Con from 3.40312e-005 to 3.40313e-005
Heightened Def Con from 3.48471e-005 to 3.48593e-005
Heightened Def Con from 3.56912e-005 to 3.56913e-005
Heightened Def Con from 3.65071e-005 to 3.65193e-005
Heightened Def Con from 3.73512e-005 to 3.73513e-005
Heightened Def Con from 3.81671e-005 to 3.81802e-005
Heightened Def Con from 3.90111e-005 to 3.90113e-005
Heightened Def Con from 3.98271e-005 to 3.98403e-005
Heightened Def Con from 4.06711e-005 to 4.06713e-005
Heightened Def Con from 4.14871e-005 to 4.15003e-005
Heightened Def Con from 4.23311e-005 to 4.23321e-005
Heightened Def Con from 4.23321e-005 to 4.23443e-005
Heightened Def Con from 4.31471e-005 to 4.31603e-005
Heightened Def Con from 4.39911e-005 to 4.39921e-005
Heightened Def Con from 4.39928e-005 to 4.40067e-005
Heightened Def Con from 4.48071e-005 to 4.48203e-005
Heightened Def Con from 4.56511e-005 to 4.56512e-005
Heightened Def Con from 4.5653e-005 to 4.56651e-005
Heightened Def Con from 4.64671e-005 to 4.64803e-005
Heightened Def Con from 4.73111e-005 to 4.73112e-005
Heightened Def Con from 4.73131e-005 to 4.73242e-005
Heightened Def Con from 4.81271e-005 to 4.81403e-005
Heightened Def Con from 4.89711e-005 to 4.89712e-005
Heightened Def Con from 4.97871e-005 to 4.98003e-005
Heightened Def Con from 5.06311e-005 to 5.06312e-005
Heightened Def Con from 5.14471e-005 to 5.14781e-005
Heightened Def Con from 5.22911e-005 to 5.22912e-005
Heightened Def Con from 5.31071e-005 to 5.31381e-005
Heightened Def Con from 5.3951e-005 to 5.39512e-005
Heightened Def Con from 5.39535e-005 to 5.39647e-005
Heightened Def Con from 5.47671e-005 to 5.47981e-005
Heightened Def Con from 5.5611e-005 to 5.56112e-005
Heightened Def Con from 5.56136e-005 to 5.56248e-005
Heightened Def Con from 5.64271e-005 to 5.64581e-005
Heightened Def Con from 5.7271e-005 to 5.72712e-005
Heightened Def Con from 5.72736e-005 to 5.72848e-005
Heightened Def Con from 5.80871e-005 to 5.81181e-005
Heightened Def Con from 5.8931e-005 to 5.89312e-005
Heightened Def Con from 5.89336e-005 to 5.89447e-005
Heightened Def Con from 5.97471e-005 to 5.97781e-005
Heightened Def Con from 6.0591e-005 to 6.05912e-005
Heightened Def Con from 6.05935e-005 to 6.06046e-005
Heightened Def Con from 6.14071e-005 to 6.14381e-005
Heightened Def Con from 6.2251e-005 to 6.22512e-005
Heightened Def Con from 6.22534e-005 to 6.22645e-005
Heightened Def Con from 6.30671e-005 to 6.30981e-005
Heightened Def Con from 6.3911e-005 to 6.39112e-005
Heightened Def Con from 6.47271e-005 to 6.47581e-005
Heightened Def Con from 6.5571e-005 to 6.55712e-005
Heightened Def Con from 6.63871e-005 to 6.64003e-005
Heightened Def Con from 6.7231e-005 to 6.72312e-005
Heightened Def Con from 6.80471e-005 to 6.80603e-005
Heightened Def Con from 6.8891e-005 to 6.88912e-005
Heightened Def Con from 6.97071e-005 to 6.97203e-005
Heightened Def Con from 7.05511e-005 to 7.05512e-005
Heightened Def Con from 7.13671e-005 to 7.13803e-005
Heightened Def Con from 7.22111e-005 to 7.22121e-005
Heightened Def Con from 7.22131e-005 to 7.22242e-005
Heightened Def Con from 7.30271e-005 to 7.30403e-005
Heightened Def Con from 7.38711e-005 to 7.38721e-005
Heightened Def Con from 7.38721e-005 to 7.38842e-005
Heightened Def Con from 7.46871e-005 to 7.47003e-005
Heightened Def Con from 7.55311e-005 to 7.55312e-005
Heightened Def Con from 7.63471e-005 to 7.63593e-005
Heightened Def Con from 7.71911e-005 to 7.71913e-005
Heightened Def Con from 7.80071e-005 to 7.80203e-005
Heightened Def Con from 7.88511e-005 to 7.88512e-005
Heightened Def Con from 7.88534e-005 to 7.88645e-005
Heightened Def Con from 7.96671e-005 to 7.96802e-005
Heightened Def Con from 8.05111e-005 to 8.05113e-005
Heightened Def Con from 8.13271e-005 to 8.13402e-005
Heightened Def Con from 8.21711e-005 to 8.21713e-005
Heightened Def Con from 8.21731e-005 to 8.21843e-005
Heightened Def Con from 8.29871e-005 to 8.29993e-005
Heightened Def Con from 8.38312e-005 to 8.38313e-005
Heightened Def Con from 8.46471e-005 to 8.46593e-005
Heightened Def Con from 8.54912e-005 to 8.54913e-005
Heightened Def Con from 8.63071e-005 to 8.63193e-005
Heightened Def Con from 8.71512e-005 to 8.71513e-005
Heightened Def Con from 8.79671e-005 to 8.79793e-005
Heightened Def Con from 8.88112e-005 to 8.88113e-005
Heightened Def Con from 8.96271e-005 to 8.96393e-005
Heightened Def Con from 9.04712e-005 to 9.04713e-005
Heightened Def Con from 9.04731e-005 to 9.04842e-005
Heightened Def Con from 9.12871e-005 to 9.12993e-005
Heightened Def Con from 9.21312e-005 to 9.21313e-005
Heightened Def Con from 9.21332e-005 to 9.21443e-005
Heightened Def Con from 9.29471e-005 to 9.29602e-005
Heightened Def Con from 9.37912e-005 to 9.37913e-005
Heightened Def Con from 9.46071e-005 to 9.46202e-005
Heightened Def Con from 9.54512e-005 to 9.54513e-005
Heightened Def Con from 9.54535e-005 to 9.54646e-005
Heightened Def Con from 9.62671e-005 to 9.62803e-005
Heightened Def Con from 9.71112e-005 to 9.71113e-005
Heightened Def Con from 9.79271e-005 to 9.79403e-005
Heightened Def Con from 9.87711e-005 to 9.87713e-005
Heightened Def Con from 9.95871e-005 to 9.96003e-005
Heightened Def Con from 0.000100431 to 0.000100432
Heightened Def Con from 0.000100432 to 0.000100444
Heightened Def Con from 0.000101247 to 0.00010126
Heightened Def Con from 0.000102091 to 0.000102092
Heightened Def Con from 0.000102092 to 0.000102104
Heightened Def Con from 0.000102907 to 0.00010292
Heightened Def Con from 0.000103751 to 0.000103752
Heightened Def Con from 0.000104567 to 0.00010458
Heightened Def Con from 0.000105411 to 0.000105411
Heightened Def Con from 0.000106227 to 0.00010624
Heightened Def Con from 0.000107071 to 0.000107071
Heightened Def Con from 0.000107887 to 0.0001079
Heightened Def Con from 0.000108731 to 0.000108731
Heightened Def Con from 0.000109547 to 0.00010956
Heightened Def Con from 0.000110391 to 0.000110391
Heightened Def Con from 0.000111207 to 0.00011122
Heightened Def Con from 0.000112051 to 0.000112051
Heightened Def Con from 0.000112867 to 0.00011288
Heightened Def Con from 0.000113711 to 0.000113711
Heightened Def Con from 0.000114527 to 0.000114558
Heightened Def Con from 0.000115371 to 0.000115371
Heightened Def Con from 0.000116187 to 0.000116218
Heightened Def Con from 0.000117031 to 0.000117031
Heightened Def Con from 0.000117847 to 0.000117878
Heightened Def Con from 0.000118691 to 0.000118691
Heightened Def Con from 0.000119507 to 0.00011952
Heightened Def Con from 0.000120351 to 0.000120351
Heightened Def Con from 0.000121167 to 0.00012118
Heightened Def Con from 0.000122011 to 0.000122011
Heightened Def Con from 0.000122827 to 0.00012284
Heightened Def Con from 0.000123671 to 0.000123671
Heightened Def Con from 0.000124487 to 0.0001245
Heightened Def Con from 0.000125331 to 0.000125331
Heightened Def Con from 0.000126147 to 0.00012616
Heightened Def Con from 0.000126991 to 0.000126991
Heightened Def Con from 0.000127807 to 0.00012782
Heightened Def Con from 0.000128651 to 0.000128652
Heightened Def Con from 0.000128653 to 0.000128664
Heightened Def Con from 0.000129467 to 0.00012948
Heightened Def Con from 0.000130311 to 0.000130312
Heightened Def Con from 0.000131127 to 0.00013114
Heightened Def Con from 0.000131971 to 0.000131972
Heightened Def Con from 0.000131972 to 0.000131984
Heightened Def Con from 0.000132787 to 0.0001328
Heightened Def Con from 0.000133631 to 0.000133632
Heightened Def Con from 0.000133632 to 0.000133644
Heightened Def Con from 0.000134453 to 0.000134461
Heightened Def Con from 0.000135291 to 0.000135291
Heightened Def Con from 0.000136107 to 0.00013612
Heightened Def Con from 0.000136951 to 0.000136951
Heightened Def Con from 0.000137767 to 0.00013778
Heightened Def Con from 0.000138611 to 0.000138611
Heightened Def Con from 0.000138614 to 0.000138625
Heightened Def Con from 0.000139427 to 0.00013944
Heightened Def Con from 0.000140271 to 0.000140271
Heightened Def Con from 0.000140273 to 0.000140285
Heightened Def Con from 0.000141087 to 0.0001411
Heightened Def Con from 0.000141931 to 0.000141931
Heightened Def Con from 0.000142747 to 0.00014276
Heightened Def Con from 0.000143591 to 0.000143591
Heightened Def Con from 0.000143593 to 0.000143604
Heightened Def Con from 0.000144407 to 0.00014442
Heightened Def Con from 0.000145251 to 0.000145251
Heightened Def Con from 0.000145253 to 0.000145264
Heightened Def Con from 0.000146067 to 0.00014608
Heightened Def Con from 0.000146911 to 0.000146911
Heightened Def Con from 0.000147727 to 0.00014774
Heightened Def Con from 0.000148571 to 0.000148571
Heightened Def Con from 0.000149387 to 0.0001494
Heightened Def Con from 0.000150231 to 0.000150231
Heightened Def Con from 0.000150233 to 0.000150245
Heightened Def Con from 0.000151047 to 0.00015106
Heightened Def Con from 0.000151891 to 0.000151891
Heightened Def Con from 0.000151894 to 0.000151905
Heightened Def Con from 0.000152707 to 0.00015272
Heightened Def Con from 0.000153551 to 0.000153551
Heightened Def Con from 0.000154367 to 0.00015438
Heightened Def Con from 0.000155211 to 0.000155211
Heightened Def Con from 0.000156027 to 0.00015604
Heightened Def Con from 0.000156871 to 0.000156872
Heightened Def Con from 0.000156872 to 0.000156884
Heightened Def Con from 0.000157687 to 0.0001577
Heightened Def Con from 0.000158531 to 0.000158532
Heightened Def Con from 0.000158532 to 0.000158544
Heightened Def Con from 0.000159347 to 0.00015936
Heightened Def Con from 0.000160191 to 0.000160192
Heightened Def Con from 0.000160193 to 0.000160207
Heightened Def Con from 0.000161007 to 0.00016102
Heightened Def Con from 0.000161851 to 0.000161852
Heightened Def Con from 0.000161853 to 0.000161867
Heightened Def Con from 0.000162667 to 0.00016268
Heightened Def Con from 0.000163511 to 0.000163512
Heightened Def Con from 0.000163513 to 0.000163527
Heightened Def Con from 0.000164327 to 0.00016434
Heightened Def Con from 0.000165171 to 0.000165171
Heightened Def Con from 0.000165987 to 0.000166
Heightened Def Con from 0.000166831 to 0.000166831
Heightened Def Con from 0.000167647 to 0.00016766
Heightened Def Con from 0.000168491 to 0.000168491
Heightened Def Con from 0.000169307 to 0.00016932
Heightened Def Con from 0.000170151 to 0.000170151
Heightened Def Con from 0.000170967 to 0.00017098
Heightened Def Con from 0.000171811 to 0.000171811
Heightened Def Con from 0.000172627 to 0.00017264
Heightened Def Con from 0.000173471 to 0.000173471
Heightened Def Con from 0.000174287 to 0.0001743
Heightened Def Con from 0.000175131 to 0.000175131
Heightened Def Con from 0.000175947 to 0.00017596
Heightened Def Con from 0.000176791 to 0.000176791
Heightened Def Con from 0.000177607 to 0.00017762
Heightened Def Con from 0.000178451 to 0.000178451
Heightened Def Con from 0.000179267 to 0.00017928
Heightened Def Con from 0.000180111 to 0.000180111
Heightened Def Con from 0.000180927 to 0.00018094
Heightened Def Con from 0.000181771 to 0.000181771
Heightened Def Con from 0.000182587 to 0.0001826
Heightened Def Con from 0.000183431 to 0.000183431
Heightened Def Con from 0.000184247 to 0.00018426
Heightened Def Con from 0.000185091 to 0.000185091
Heightened Def Con from 0.000185907 to 0.00018592
Heightened Def Con from 0.000186751 to 0.000186752
Heightened Def Con from 0.000187567 to 0.00018758
Heightened Def Con from 0.000188411 to 0.000188412
Heightened Def Con from 0.000188413 to 0.000188424
Heightened Def Con from 0.000189227 to 0.00018924
Heightened Def Con from 0.000190071 to 0.000190072
Heightened Def Con from 0.000190072 to 0.000190084
Heightened Def Con from 0.000190887 to 0.0001909
Heightened Def Con from 0.000191731 to 0.000191732
Heightened Def Con from 0.000191732 to 0.000191744
Heightened Def Con from 0.000192547 to 0.00019256
Heightened Def Con from 0.000193391 to 0.000193392
Heightened Def Con from 0.000193392 to 0.000193404
Heightened Def Con from 0.000194207 to 0.00019422
Heightened Def Con from 0.000195051 to 0.000195051
Heightened Def Con from 0.000195867 to 0.00019588
Heightened Def Con from 0.000196711 to 0.000196711
Heightened Def Con from 0.000197527 to 0.00019754
Heightened Def Con from 0.000198371 to 0.000198371
Heightened Def Con from 0.000199187 to 0.0001992
Heightened Def Con from 0.000200031 to 0.000200031
Heightened Def Con from 0.000200847 to 0.00020086
Heightened Def Con from 0.000201691 to 0.000201691
Heightened Def Con from 0.000201694 to 0.000201705
Heightened Def Con from 0.000202507 to 0.00020252
Heightened Def Con from 0.000203351 to 0.000203351
Heightened Def Con from 0.000203354 to 0.000203365
Heightened Def Con from 0.000204167 to 0.00020418
Heightened Def Con from 0.000205011 to 0.000205011
Heightened Def Con from 0.000205014 to 0.000205025
Heightened Def Con from 0.000205827 to 0.00020584
Heightened Def Con from 0.000206671 to 0.000206671
Heightened Def Con from 0.000207487 to 0.0002075
Heightened Def Con from 0.000208331 to 0.000208331
Heightened Def Con from 0.000209147 to 0.00020916
Heightened Def Con from 0.000209991 to 0.000209991
Heightened Def Con from 0.000210807 to 0.00021082
Heightened Def Con from 0.000211651 to 0.000211651
Heightened Def Con from 0.000212467 to 0.00021248
Heightened Def Con from 0.000213311 to 0.000213311
Heightened Def Con from 0.000214127 to 0.00021414
Heightened Def Con from 0.000214971 to 0.000214972
Heightened Def Con from 0.000214972 to 0.000214984
Heightened Def Con from 0.000215787 to 0.0002158
Heightened Def Con from 0.000216631 to 0.000216632
Heightened Def Con from 0.000216632 to 0.000216644
Heightened Def Con from 0.000217447 to 0.00021746
Heightened Def Con from 0.000218291 to 0.000218292
Heightened Def Con from 0.000218292 to 0.000218304
Heightened Def Con from 0.000219107 to 0.00021912
Heightened Def Con from 0.000219951 to 0.000219952
Heightened Def Con from 0.000220767 to 0.00022078
Heightened Def Con from 0.000221611 to 0.000221612
Heightened Def Con from 0.000221613 to 0.000221627
Heightened Def Con from 0.000222427 to 0.00022244
Heightened Def Con from 0.000223271 to 0.000223272
Heightened Def Con from 0.000224087 to 0.0002241
Heightened Def Con from 0.000224931 to 0.000224932
Heightened Def Con from 0.000224933 to 0.000224944
Heightened Def Con from 0.000225747 to 0.00022576
Heightened Def Con from 0.000226591 to 0.000226591
Heightened Def Con from 0.000227407 to 0.00022742
Heightened Def Con from 0.000228251 to 0.000228251
Heightened Def Con from 0.000229067 to 0.00022908
Heightened Def Con from 0.000229911 to 0.000229911
Heightened Def Con from 0.000230727 to 0.00023074
Heightened Def Con from 0.000231571 to 0.000231571
Heightened Def Con from 0.000232387 to 0.0002324
Heightened Def Con from 0.000233231 to 0.000233231
Heightened Def Con from 0.000234053 to 0.000234061
Heightened Def Con from 0.000234891 to 0.000234891
Heightened Def Con from 0.000234893 to 0.000234905
Heightened Def Con from 0.000235707 to 0.00023572
Heightened Def Con from 0.000236551 to 0.000236551
Heightened Def Con from 0.000237367 to 0.00023738
Heightened Def Con from 0.000238211 to 0.000238211
Heightened Def Con from 0.000239027 to 0.00023904
Heightened Def Con from 0.000239871 to 0.000239871
Heightened Def Con from 0.000240687 to 0.0002407
Heightened Def Con from 0.000241531 to 0.000241532
Heightened Def Con from 0.000241533 to 0.000241544
Heightened Def Con from 0.000242347 to 0.00024236
Heightened Def Con from 0.000243191 to 0.000243192
Heightened Def Con from 0.000243193 to 0.000243204
Heightened Def Con from 0.000244007 to 0.00024402
Heightened Def Con from 0.000244851 to 0.000244852
Heightened Def Con from 0.000245667 to 0.00024568
Heightened Def Con from 0.000246511 to 0.000246512
Heightened Def Con from 0.000247327 to 0.00024734
Heightened Def Con from 0.000248171 to 0.000248172
Heightened Def Con from 0.000248987 to 0.000249
Heightened Def Con from 0.000249831 to 0.000249832
Heightened Def Con from 0.000249832 to 0.000249844
Heightened Def Con from 0.000250647 to 0.00025066
Heightened Def Con from 0.000251491 to 0.000251492
Heightened Def Con from 0.000251492 to 0.000251504
Heightened Def Con from 0.000252307 to 0.00025232
Heightened Def Con from 0.000253151 to 0.000253152
Heightened Def Con from 0.000253152 to 0.000253164
Heightened Def Con from 0.000253967 to 0.00025398
Heightened Def Con from 0.000254811 to 0.000254811
Heightened Def Con from 0.000255627 to 0.00025564
Heightened Def Con from 0.000256471 to 0.000256471
Heightened Def Con from 0.000257287 to 0.0002573
Heightened Def Con from 0.000258131 to 0.000258131
Heightened Def Con from 0.000258947 to 0.00025896
Heightened Def Con from 0.000259791 to 0.000259791
Heightened Def Con from 0.000260607 to 0.00026062
Heightened Def Con from 0.000261451 to 0.000261451
Heightened Def Con from 0.000262267 to 0.00026228
Heightened Def Con from 0.000263111 to 0.000263111
Heightened Def Con from 0.000263927 to 0.00026394
Heightened Def Con from 0.000264771 to 0.000264771
Heightened Def Con from 0.000265587 to 0.000265599
Heightened Def Con from 0.000266431 to 0.000266431
Heightened Def Con from 0.000267247 to 0.00026726
Heightened Def Con from 0.000268091 to 0.000268091
Heightened Def Con from 0.000268907 to 0.00026892
Heightened Def Con from 0.000269751 to 0.000269751
Heightened Def Con from 0.000270567 to 0.00027058
Heightened Def Con from 0.000271411 to 0.000271412
Heightened Def Con from 0.000271412 to 0.000271424
Heightened Def Con from 0.000272227 to 0.00027224
Heightened Def Con from 0.000273071 to 0.000273072
Heightened Def Con from 0.000273072 to 0.000273084
Heightened Def Con from 0.000273887 to 0.0002739
Heightened Def Con from 0.000274731 to 0.000274732
Heightened Def Con from 0.000274732 to 0.000274744
Heightened Def Con from 0.000275547 to 0.00027556
Heightened Def Con from 0.000276391 to 0.000276392
Heightened Def Con from 0.000276392 to 0.000276404
Heightened Def Con from 0.000277207 to 0.00027722
Heightened Def Con from 0.000278051 to 0.000278052
Heightened Def Con from 0.000278053 to 0.000278064
Heightened Def Con from 0.000278867 to 0.00027888
Heightened Def Con from 0.000279711 to 0.000279712
Heightened Def Con from 0.000279713 to 0.000279724
Heightened Def Con from 0.000280527 to 0.00028054
Heightened Def Con from 0.000281371 to 0.000281372
Heightened Def Con from 0.000282187 to 0.0002822
Heightened Def Con from 0.000283031 to 0.000283032
Heightened Def Con from 0.000283033 to 0.000283044
Heightened Def Con from 0.000283847 to 0.00028386
Heightened Def Con from 0.000284691 to 0.000284692
Heightened Def Con from 0.000285507 to 0.00028552
Heightened Def Con from 0.000286351 to 0.000286352
Heightened Def Con from 0.000286353 to 0.000286367
Heightened Def Con from 0.000287167 to 0.00028718
Heightened Def Con from 0.000288011 to 0.000288012
Heightened Def Con from 0.000288827 to 0.00028884
Heightened Def Con from 0.000289671 to 0.000289671
Heightened Def Con from 0.000290487 to 0.0002905
Heightened Def Con from 0.000291331 to 0.000291331
Heightened Def Con from 0.000292147 to 0.00029216
Heightened Def Con from 0.000292991 to 0.000292991
Heightened Def Con from 0.000293807 to 0.00029382
Heightened Def Con from 0.000294651 to 0.000294651
Heightened Def Con from 0.000295467 to 0.00029548
Heightened Def Con from 0.000296311 to 0.000296312
Heightened Def Con from 0.000296313 to 0.000296327
Heightened Def Con from 0.000297127 to 0.00029714
Heightened Def Con from 0.000297971 to 0.000297972
Heightened Def Con from 0.000297973 to 0.000297984
Heightened Def Con from 0.000298787 to 0.0002988
Heightened Def Con from 0.000299631 to 0.000299632
Heightened Def Con from 0.000299633 to 0.000299644
Heightened Def Con from 0.000300447 to 0.00030046
Heightened Def Con from 0.000301291 to 0.000301292
Heightened Def Con from 0.000302107 to 0.00030212
Heightened Def Con from 0.000302951 to 0.000302952
Heightened Def Con from 0.000302953 to 0.000302964
Heightened Def Con from 0.000303767 to 0.00030378
Heightened Def Con from 0.000304611 to 0.000304612
Heightened Def Con from 0.000304613 to 0.000304624
Heightened Def Con from 0.000305427 to 0.00030544
Heightened Def Con from 0.000306271 to 0.000306272
Heightened Def Con from 0.000307087 to 0.0003071
Heightened Def Con from 0.000307931 to 0.000307932
Heightened Def Con from 0.000307932 to 0.000307944
Heightened Def Con from 0.000308747 to 0.00030876
Heightened Def Con from 0.000309591 to 0.000309592
Heightened Def Con from 0.000309592 to 0.000309604
Heightened Def Con from 0.000310407 to 0.00031042
Heightened Def Con from 0.000311251 to 0.000311252
Heightened Def Con from 0.000311252 to 0.000311264
Heightened Def Con from 0.000312067 to 0.00031208
Heightened Def Con from 0.000312911 to 0.000312912
Heightened Def Con from 0.000312912 to 0.000312924
Heightened Def Con from 0.000313727 to 0.00031374
Heightened Def Con from 0.000314571 to 0.000314572
Heightened Def Con from 0.000314572 to 0.000314584
Heightened Def Con from 0.000315387 to 0.0003154
Heightened Def Con from 0.000316231 to 0.000316232
Heightened Def Con from 0.000316232 to 0.000316244
Heightened Def Con from 0.000317047 to 0.00031706
Heightened Def Con from 0.000317891 to 0.000317891
Heightened Def Con from 0.000318707 to 0.00031872
Heightened Def Con from 0.000319551 to 0.000319551
Heightened Def Con from 0.000320367 to 0.00032038
Heightened Def Con from 0.000321211 to 0.000321211
Heightened Def Con from 0.000322027 to 0.00032204
Heightened Def Con from 0.000322871 to 0.000322871
Heightened Def Con from 0.000323687 to 0.0003237
Heightened Def Con from 0.000324531 to 0.000324532
Heightened Def Con from 0.000324532 to 0.000324544
Heightened Def Con from 0.000325347 to 0.00032536
Heightened Def Con from 0.000326191 to 0.000326192
Heightened Def Con from 0.000326192 to 0.000326204
Heightened Def Con from 0.000327007 to 0.00032702
Heightened Def Con from 0.000327851 to 0.000327852
Heightened Def Con from 0.000327852 to 0.000327864
Heightened Def Con from 0.000328667 to 0.00032868
Heightened Def Con from 0.000329511 to 0.000329512
Heightened Def Con from 0.000329512 to 0.000329524
Heightened Def Con from 0.000330327 to 0.00033034
Heightened Def Con from 0.000331171 to 0.000331172
Heightened Def Con from 0.000331172 to 0.000331184
Heightened Def Con from 0.000331987 to 0.000332
Heightened Def Con from 0.000332831 to 0.000332832
Heightened Def Con from 0.000332832 to 0.000332844
Heightened Def Con from 0.000333647 to 0.00033366
Heightened Def Con from 0.000334491 to 0.000334492
Heightened Def Con from 0.000334492 to 0.000334504
Heightened Def Con from 0.000335307 to 0.00033532
Heightened Def Con from 0.000336151 to 0.000336152
Heightened Def Con from 0.000336967 to 0.00033698
Heightened Def Con from 0.000337811 to 0.000337812
Heightened Def Con from 0.000337812 to 0.000337824
Heightened Def Con from 0.000338627 to 0.00033864
Heightened Def Con from 0.000339471 to 0.000339472
Heightened Def Con from 0.000339473 to 0.000339484
Heightened Def Con from 0.000340287 to 0.0003403
Heightened Def Con from 0.000341131 to 0.000341132
Heightened Def Con from 0.000341133 to 0.000341144
Heightened Def Con from 0.000341947 to 0.00034196
Heightened Def Con from 0.000342791 to 0.000342792
Heightened Def Con from 0.000342793 to 0.000342807
Heightened Def Con from 0.000343607 to 0.00034362
Heightened Def Con from 0.000344451 to 0.000344452
Heightened Def Con from 0.000345267 to 0.00034528
Heightened Def Con from 0.000346111 to 0.000346112
Heightened Def Con from 0.000346113 to 0.000346124
Heightened Def Con from 0.000346927 to 0.00034694
Heightened Def Con from 0.000347771 to 0.000347772
Heightened Def Con from 0.000347773 to 0.000347787
Heightened Def Con from 0.000348587 to 0.0003486
Heightened Def Con from 0.000349431 to 0.000349432
Heightened Def Con from 0.000349433 to 0.000349447
Heightened Def Con from 0.000350247 to 0.00035026
Heightened Def Con from 0.000351091 to 0.000351092
Heightened Def Con from 0.000351093 to 0.000351107
Heightened Def Con from 0.000351907 to 0.00035192
Heightened Def Con from 0.000352751 to 0.000352752
Heightened Def Con from 0.000352753 to 0.000352764
Heightened Def Con from 0.000353567 to 0.00035358
Heightened Def Con from 0.000354411 to 0.000354412
Heightened Def Con from 0.000355227 to 0.00035524
Heightened Def Con from 0.000356071 to 0.000356072
Heightened Def Con from 0.000356887 to 0.0003569
Heightened Def Con from 0.000357731 to 0.000357732
Heightened Def Con from 0.000358547 to 0.00035856
Heightened Def Con from 0.000359391 to 0.000359392
Heightened Def Con from 0.000360207 to 0.00036022
Heightened Def Con from 0.000361051 to 0.000361052
Heightened Def Con from 0.000361053 to 0.000361064
Heightened Def Con from 0.000361867 to 0.00036188
Heightened Def Con from 0.000362711 to 0.000362712
Heightened Def Con from 0.000363527 to 0.00036354
Heightened Def Con from 0.000364371 to 0.000364372
Heightened Def Con from 0.000365187 to 0.0003652
Heightened Def Con from 0.000366031 to 0.000366032
Heightened Def Con from 0.000366032 to 0.000366044
Heightened Def Con from 0.000366847 to 0.00036686
Heightened Def Con from 0.000367691 to 0.000367692
Heightened Def Con from 0.000367692 to 0.000367704
Heightened Def Con from 0.000368507 to 0.00036852
Heightened Def Con from 0.000369351 to 0.000369352
Heightened Def Con from 0.000369352 to 0.000369364
Heightened Def Con from 0.000370167 to 0.00037018
Heightened Def Con from 0.000371011 to 0.000371012
Heightened Def Con from 0.000371012 to 0.000371024
Heightened Def Con from 0.000371827 to 0.00037184
Heightened Def Con from 0.000372671 to 0.000372672
Heightened Def Con from 0.000372672 to 0.000372684
Heightened Def Con from 0.000373487 to 0.0003735
Heightened Def Con from 0.000374331 to 0.000374332
Heightened Def Con from 0.000374332 to 0.000374344
Heightened Def Con from 0.000375147 to 0.00037516
Heightened Def Con from 0.000375991 to 0.000375992
Heightened Def Con from 0.000375992 to 0.000376004
Heightened Def Con from 0.000376807 to 0.00037682
Heightened Def Con from 0.000377651 to 0.000377652
Heightened Def Con from 0.000377652 to 0.000377664
Heightened Def Con from 0.000378467 to 0.00037848
Heightened Def Con from 0.000379311 to 0.000379312
Heightened Def Con from 0.000379312 to 0.000379324
Heightened Def Con from 0.000380127 to 0.00038014
Heightened Def Con from 0.000380971 to 0.000380972
Heightened Def Con from 0.000380972 to 0.000380984
Heightened Def Con from 0.000381787 to 0.0003818
Heightened Def Con from 0.000382631 to 0.000382632
Heightened Def Con from 0.000382632 to 0.000382644
Heightened Def Con from 0.000383447 to 0.00038346
Heightened Def Con from 0.000384291 to 0.000384292
Heightened Def Con from 0.000384292 to 0.000384304
Heightened Def Con from 0.000385107 to 0.00038512
Heightened Def Con from 0.000385951 to 0.000385952
Heightened Def Con from 0.000385952 to 0.000385964
Heightened Def Con from 0.000386767 to 0.00038678
Heightened Def Con from 0.000387611 to 0.000387612
Heightened Def Con from 0.000387612 to 0.000387624
Heightened Def Con from 0.000388427 to 0.00038844
Heightened Def Con from 0.000389271 to 0.000389272
Heightened Def Con from 0.000389272 to 0.000389284
Heightened Def Con from 0.000390087 to 0.0003901
Heightened Def Con from 0.000390931 to 0.000390932
Heightened Def Con from 0.000390932 to 0.000390944
Heightened Def Con from 0.000391747 to 0.00039176
Heightened Def Con from 0.000392591 to 0.000392592
Heightened Def Con from 0.000392592 to 0.000392604
Heightened Def Con from 0.000393407 to 0.00039342
Heightened Def Con from 0.000394251 to 0.000394252
Heightened Def Con from 0.000394252 to 0.000394264
Heightened Def Con from 0.000395067 to 0.00039508
Heightened Def Con from 0.000395911 to 0.000395912
Heightened Def Con from 0.000395913 to 0.000395924
Heightened Def Con from 0.000396727 to 0.00039674
Heightened Def Con from 0.000397571 to 0.000397572
Heightened Def Con from 0.000397573 to 0.000397584
Heightened Def Con from 0.000398387 to 0.0003984
Heightened Def Con from 0.000399231 to 0.000399232
Heightened Def Con from 0.000399233 to 0.000399244
Heightened Def Con from 0.000400047 to 0.00040006
Heightened Def Con from 0.000400891 to 0.000400892
Heightened Def Con from 0.000401707 to 0.00040172
Heightened Def Con from 0.000402551 to 0.000402552
Heightened Def Con from 0.000402553 to 0.000402567
Heightened Def Con from 0.000403367 to 0.00040338
Heightened Def Con from 0.000404211 to 0.000404212
Heightened Def Con from 0.000405027 to 0.00040504
Heightened Def Con from 0.000405871 to 0.000405872
Heightened Def Con from 0.000405872 to 0.000405874
Heightened Def Con from 0.000406687 to 0.0004067
Heightened Def Con from 0.000407531 to 0.000407532
Heightened Def Con from 0.000407533 to 0.000407547
Heightened Def Con from 0.000408347 to 0.00040836
Heightened Def Con from 0.000409191 to 0.000409192
Heightened Def Con from 0.000410007 to 0.00041002
Heightened Def Con from 0.000410851 to 0.000410852
Heightened Def Con from 0.000410853 to 0.000410867
Heightened Def Con from 0.000411667 to 0.00041168
Heightened Def Con from 0.000412511 to 0.000412512
Heightened Def Con from 0.000413327 to 0.00041334
Heightened Def Con from 0.000414171 to 0.000414172
Heightened Def Con from 0.000414173 to 0.000414184
Heightened Def Con from 0.000414987 to 0.000415
Heightened Def Con from 0.000415831 to 0.000415832
Heightened Def Con from 0.000415833 to 0.000415847
Heightened Def Con from 0.000416647 to 0.00041666
Heightened Def Con from 0.000417491 to 0.000417492
Heightened Def Con from 0.000417493 to 0.000417504
Heightened Def Con from 0.000418307 to 0.00041832
Heightened Def Con from 0.000419151 to 0.000419152
Heightened Def Con from 0.000419153 to 0.000419164
Heightened Def Con from 0.000419967 to 0.00041998
Heightened Def Con from 0.000420811 to 0.000420812
Heightened Def Con from 0.000421627 to 0.00042164
Heightened Def Con from 0.000422471 to 0.000422472
Heightened Def Con from 0.000423287 to 0.0004233
Heightened Def Con from 0.000424131 to 0.000424132
Heightened Def Con from 0.000424132 to 0.000424144
Heightened Def Con from 0.000424947 to 0.00042496
Heightened Def Con from 0.000425791 to 0.000425792
Heightened Def Con from 0.000425793 to 0.000425804
Heightened Def Con from 0.000426607 to 0.00042662
Heightened Def Con from 0.000427451 to 0.000427452
Heightened Def Con from 0.000427452 to 0.000427464
Heightened Def Con from 0.000428267 to 0.00042828
Heightened Def Con from 0.000429111 to 0.000429112
Heightened Def Con from 0.000429112 to 0.000429124
Heightened Def Con from 0.000429927 to 0.00042994
Heightened Def Con from 0.000430771 to 0.000430772
Heightened Def Con from 0.000430772 to 0.000430784
Heightened Def Con from 0.000431587 to 0.0004316
Heightened Def Con from 0.000432431 to 0.000432432
Heightened Def Con from 0.000432432 to 0.000432444
Heightened Def Con from 0.000433247 to 0.00043326
Heightened Def Con from 0.000434091 to 0.000434092
Heightened Def Con from 0.000434092 to 0.000434104
Heightened Def Con from 0.000434907 to 0.00043492
Heightened Def Con from 0.000435751 to 0.000435752
Heightened Def Con from 0.000435752 to 0.000435764
Heightened Def Con from 0.000436567 to 0.00043658
Heightened Def Con from 0.000437411 to 0.000437412
Heightened Def Con from 0.000437412 to 0.000437424
Heightened Def Con from 0.000438227 to 0.00043824
Heightened Def Con from 0.000439071 to 0.000439072
Heightened Def Con from 0.000439072 to 0.000439084
Heightened Def Con from 0.000439887 to 0.0004399
Heightened Def Con from 0.000440731 to 0.000440732
Heightened Def Con from 0.000440732 to 0.000440744
Heightened Def Con from 0.000441547 to 0.00044156
Heightened Def Con from 0.000442391 to 0.000442392
Heightened Def Con from 0.000442392 to 0.000442404
Heightened Def Con from 0.000443207 to 0.00044322
Heightened Def Con from 0.000444051 to 0.000444052
Heightened Def Con from 0.000444052 to 0.000444064
Heightened Def Con from 0.000444867 to 0.00044488
Heightened Def Con from 0.000445711 to 0.000445712
Heightened Def Con from 0.000445712 to 0.000445724
Heightened Def Con from 0.000446527 to 0.00044654
Heightened Def Con from 0.000447371 to 0.000447372
Heightened Def Con from 0.000447372 to 0.000447384
Heightened Def Con from 0.000448187 to 0.0004482
Heightened Def Con from 0.000449031 to 0.000449032
Heightened Def Con from 0.000449032 to 0.000449044
Heightened Def Con from 0.000449847 to 0.00044986
Heightened Def Con from 0.000450691 to 0.000450692
Heightened Def Con from 0.000450692 to 0.000450704
Heightened Def Con from 0.000451507 to 0.00045152
Heightened Def Con from 0.000452351 to 0.000452352
Heightened Def Con from 0.000453167 to 0.00045318
Heightened Def Con from 0.000454011 to 0.000454012
Heightened Def Con from 0.000454012 to 0.000454024
Heightened Def Con from 0.000454827 to 0.00045484
Heightened Def Con from 0.000455671 to 0.000455672
Heightened Def Con from 0.000455673 to 0.000455684
Heightened Def Con from 0.000456487 to 0.0004565
Heightened Def Con from 0.000457331 to 0.000457332
Heightened Def Con from 0.000457333 to 0.000457344
Heightened Def Con from 0.000458147 to 0.00045816
Heightened Def Con from 0.000458991 to 0.000458992
Heightened Def Con from 0.000458993 to 0.000459004
Heightened Def Con from 0.000459807 to 0.00045982
Heightened Def Con from 0.000460651 to 0.000460652
Heightened Def Con from 0.000461467 to 0.00046148
Heightened Def Con from 0.000462311 to 0.000462312
Heightened Def Con from 0.000462313 to 0.000462327
Heightened Def Con from 0.000463127 to 0.00046314
Heightened Def Con from 0.000463971 to 0.000463972
Heightened Def Con from 0.000464787 to 0.0004648
Heightened Def Con from 0.000465631 to 0.000465632
Heightened Def Con from 0.000466447 to 0.00046646
Heightened Def Con from 0.000467291 to 0.000467292
Heightened Def Con from 0.000468107 to 0.00046812
Heightened Def Con from 0.000468951 to 0.000468952
Heightened Def Con from 0.000469767 to 0.00046978
Heightened Def Con from 0.000470611 to 0.000470612
Heightened Def Con from 0.000470613 to 0.000470627
Heightened Def Con from 0.000471427 to 0.00047144
Heightened Def Con from 0.000472271 to 0.000472272
Heightened Def Con from 0.000472273 to 0.000472284
Heightened Def Con from 0.000473087 to 0.0004731
Heightened Def Con from 0.000473931 to 0.000473932
Heightened Def Con from 0.000474747 to 0.00047476
Heightened Def Con from 0.000475591 to 0.000475592
Heightened Def Con from 0.000476407 to 0.00047642
Heightened Def Con from 0.000477251 to 0.000477252
Heightened Def Con from 0.000477253 to 0.000477264
Heightened Def Con from 0.000478067 to 0.00047808
Heightened Def Con from 0.000478911 to 0.000478912
Heightened Def Con from 0.000478913 to 0.000478924
Heightened Def Con from 0.000479727 to 0.00047974
Heightened Def Con from 0.000480571 to 0.000480572
Heightened Def Con from 0.000480572 to 0.000480584
Heightened Def Con from 0.000481387 to 0.0004814
Heightened Def Con from 0.000482231 to 0.000482232
Heightened Def Con from 0.000482233 to 0.000482247
Heightened Def Con from 0.000483047 to 0.00048306
Heightened Def Con from 0.000483891 to 0.000483892
Heightened Def Con from 0.000483892 to 0.000483904
Heightened Def Con from 0.000484707 to 0.00048472
Heightened Def Con from 0.000485551 to 0.000485552
Heightened Def Con from 0.000485552 to 0.000485564
Heightened Def Con from 0.000486367 to 0.00048638
Heightened Def Con from 0.000487211 to 0.000487212
Heightened Def Con from 0.000487212 to 0.000487224
Heightened Def Con from 0.000488027 to 0.00048804
Heightened Def Con from 0.000488871 to 0.000488872
Heightened Def Con from 0.000488872 to 0.000488884
Heightened Def Con from 0.000489687 to 0.0004897
Heightened Def Con from 0.000490531 to 0.000490532
Heightened Def Con from 0.000490532 to 0.000490544
Heightened Def Con from 0.000491347 to 0.00049136
Heightened Def Con from 0.000492191 to 0.000492192
Heightened Def Con from 0.000492192 to 0.000492204
Heightened Def Con from 0.000493007 to 0.00049302
Heightened Def Con from 0.000493851 to 0.000493852
Heightened Def Con from 0.000493852 to 0.000493864
Heightened Def Con from 0.000494667 to 0.00049468
Heightened Def Con from 0.000495511 to 0.000495512
Heightened Def Con from 0.000495512 to 0.000495524
Heightened Def Con from 0.000496327 to 0.00049634
Heightened Def Con from 0.000497171 to 0.000497172
Heightened Def Con from 0.000497172 to 0.000497184
Heightened Def Con from 0.000497987 to 0.000498
Heightened Def Con from 0.000498831 to 0.000498832
Heightened Def Con from 0.000498832 to 0.000498844
Heightened Def Con from 0.000499647 to 0.00049966
Heightened Def Con from 0.000500491 to 0.000500492
Heightened Def Con from 0.000500492 to 0.000500504
Heightened Def Con from 0.000501307 to 0.00050132
Heightened Def Con from 0.000502151 to 0.000502152
Heightened Def Con from 0.000502152 to 0.000502164
Heightened Def Con from 0.000502967 to 0.00050298
Heightened Def Con from 0.000503811 to 0.000503812
Heightened Def Con from 0.000503812 to 0.000503824
Heightened Def Con from 0.000504627 to 0.00050464
Heightened Def Con from 0.000505471 to 0.000505472
Heightened Def Con from 0.000505472 to 0.000505484
Heightened Def Con from 0.000506287 to 0.0005063
Heightened Def Con from 0.000507131 to 0.000507132
Heightened Def Con from 0.000507132 to 0.000507144
Heightened Def Con from 0.000507947 to 0.00050796
Heightened Def Con from 0.000508791 to 0.000508792
Heightened Def Con from 0.000508793 to 0.000508804
Heightened Def Con from 0.000509607 to 0.00050962
Heightened Def Con from 0.000510451 to 0.000510452
Heightened Def Con from 0.000511267 to 0.00051128
Heightened Def Con from 0.000512111 to 0.000512112
Heightened Def Con from 0.000512927 to 0.00051294
Heightened Def Con from 0.000513771 to 0.000513772
Heightened Def Con from 0.000514587 to 0.0005146
Heightened Def Con from 0.000515431 to 0.000515432
Heightened Def Con from 0.000515433 to 0.000515444
Heightened Def Con from 0.000516247 to 0.00051626
Heightened Def Con from 0.000517091 to 0.000517092
Heightened Def Con from 0.000517093 to 0.000517104
Heightened Def Con from 0.000517907 to 0.00051792
Heightened Def Con from 0.000518751 to 0.000518752
Heightened Def Con from 0.000518753 to 0.000518764
Heightened Def Con from 0.000519567 to 0.00051958
Heightened Def Con from 0.000520411 to 0.000520412
Heightened Def Con from 0.000520413 to 0.000520424
Heightened Def Con from 0.000521227 to 0.00052124
Heightened Def Con from 0.000522071 to 0.000522072
Heightened Def Con from 0.000522887 to 0.0005229
Heightened Def Con from 0.000523731 to 0.000523732
Heightened Def Con from 0.000524547 to 0.00052456
Heightened Def Con from 0.000525391 to 0.000525392
Heightened Def Con from 0.000525393 to 0.000525404
Heightened Def Con from 0.000526207 to 0.00052622
Heightened Def Con from 0.000527051 to 0.000527052
Heightened Def Con from 0.000527053 to 0.000527064
Heightened Def Con from 0.000527867 to 0.00052788
Heightened Def Con from 0.000528711 to 0.000528712
Heightened Def Con from 0.000528713 to 0.000528724
Heightened Def Con from 0.000529527 to 0.00052954
Heightened Def Con from 0.000530371 to 0.000530372
Heightened Def Con from 0.000531187 to 0.0005312
Heightened Def Con from 0.000532031 to 0.000532032
Heightened Def Con from 0.000532033 to 0.000532044
Heightened Def Con from 0.000532847 to 0.00053286
Heightened Def Con from 0.000533691 to 0.000533692
Heightened Def Con from 0.000533693 to 0.000533704
Heightened Def Con from 0.000534507 to 0.00053452
Heightened Def Con from 0.000535351 to 0.000535352
Heightened Def Con from 0.000535353 to 0.000535364
Heightened Def Con from 0.000536167 to 0.00053618
Heightened Def Con from 0.000537011 to 0.000537012
Heightened Def Con from 0.000537827 to 0.00053784
Heightened Def Con from 0.000538671 to 0.000538672
Heightened Def Con from 0.000539487 to 0.0005395
Heightened Def Con from 0.000540331 to 0.000540332
Heightened Def Con from 0.000541147 to 0.00054116
Heightened Def Con from 0.000541991 to 0.000541992
Heightened Def Con from 0.000542807 to 0.00054282
Heightened Def Con from 0.000543651 to 0.000543652
Heightened Def Con from 0.000543652 to 0.000543664
Heightened Def Con from 0.000544467 to 0.00054448
Heightened Def Con from 0.000545311 to 0.000545312
Heightened Def Con from 0.000545313 to 0.000545324
Heightened Def Con from 0.000546127 to 0.00054614
Heightened Def Con from 0.000546971 to 0.000546972
Heightened Def Con from 0.000546972 to 0.000546984
Heightened Def Con from 0.000547787 to 0.0005478
Heightened Def Con from 0.000548631 to 0.000548632
Heightened Def Con from 0.000548632 to 0.000548644
Heightened Def Con from 0.000549447 to 0.00054946
Heightened Def Con from 0.000550291 to 0.000550292
Heightened Def Con from 0.000550292 to 0.000550304
Heightened Def Con from 0.000551107 to 0.00055112
Heightened Def Con from 0.000551951 to 0.000551952
Heightened Def Con from 0.000551952 to 0.000551964
Heightened Def Con from 0.000552767 to 0.00055278
Heightened Def Con from 0.000553611 to 0.000553612
Heightened Def Con from 0.000553612 to 0.000553624
Heightened Def Con from 0.000554427 to 0.00055444
Heightened Def Con from 0.000555271 to 0.000555272
Heightened Def Con from 0.000555272 to 0.000555284
Heightened Def Con from 0.000556087 to 0.0005561
Heightened Def Con from 0.000556931 to 0.000556932
Heightened Def Con from 0.000556932 to 0.000556944
Heightened Def Con from 0.000557747 to 0.00055776
Heightened Def Con from 0.000558591 to 0.000558592
Heightened Def Con from 0.000558592 to 0.000558604
Heightened Def Con from 0.000559407 to 0.00055942
Heightened Def Con from 0.000560251 to 0.000560252
Heightened Def Con from 0.000560252 to 0.000560264
Heightened Def Con from 0.000561067 to 0.00056108
Heightened Def Con from 0.000561911 to 0.000561912
Heightened Def Con from 0.000561912 to 0.000561924
Heightened Def Con from 0.000562727 to 0.00056274
Heightened Def Con from 0.000563571 to 0.000563572
Heightened Def Con from 0.000563572 to 0.000563584
Heightened Def Con from 0.000564387 to 0.0005644
Heightened Def Con from 0.000565231 to 0.000565232
Heightened Def Con from 0.000565232 to 0.000565244
Heightened Def Con from 0.000566047 to 0.00056606
Heightened Def Con from 0.000566891 to 0.000566892
Heightened Def Con from 0.000566892 to 0.000566904
Heightened Def Con from 0.000567707 to 0.00056772
Heightened Def Con from 0.000568551 to 0.000568552
Heightened Def Con from 0.000569367 to 0.00056938
Heightened Def Con from 0.000570211 to 0.000570212
Heightened Def Con from 0.000571027 to 0.00057104
Heightened Def Con from 0.000571871 to 0.000571872
Heightened Def Con from 0.000571873 to 0.000571884
Heightened Def Con from 0.000572687 to 0.0005727
Heightened Def Con from 0.000573531 to 0.000573532
Heightened Def Con from 0.000573533 to 0.000573544
Heightened Def Con from 0.000574347 to 0.00057436
Heightened Def Con from 0.000575191 to 0.000575192
Heightened Def Con from 0.000576007 to 0.00057602
Heightened Def Con from 0.000576851 to 0.000576852
Heightened Def Con from 0.000576852 to 0.000576864
Heightened Def Con from 0.000577667 to 0.00057768
Heightened Def Con from 0.000578511 to 0.000578512
Heightened Def Con from 0.000579327 to 0.00057934
Heightened Def Con from 0.000580171 to 0.000580172
Heightened Def Con from 0.000580173 to 0.000580184
Heightened Def Con from 0.000580987 to 0.000581
Heightened Def Con from 0.000581831 to 0.000581832
Heightened Def Con from 0.000581833 to 0.000581844
Heightened Def Con from 0.000582647 to 0.00058266
Heightened Def Con from 0.000583491 to 0.000583492
Heightened Def Con from 0.000583492 to 0.000583504
Heightened Def Con from 0.000584307 to 0.00058432
Heightened Def Con from 0.000585151 to 0.000585152
Heightened Def Con from 0.000585153 to 0.000585164
Heightened Def Con from 0.000585967 to 0.00058598
Heightened Def Con from 0.000586811 to 0.000586812
Heightened Def Con from 0.000586812 to 0.000586824
Heightened Def Con from 0.000587627 to 0.00058764
Heightened Def Con from 0.000588471 to 0.000588472
Heightened Def Con from 0.000588473 to 0.000588484
Heightened Def Con from 0.000589287 to 0.0005893
Heightened Def Con from 0.000590131 to 0.000590132
Heightened Def Con from 0.000590132 to 0.000590144
Heightened Def Con from 0.000590947 to 0.00059096
Heightened Def Con from 0.000591791 to 0.000591792
Heightened Def Con from 0.000591792 to 0.000591804
Heightened Def Con from 0.000592607 to 0.00059262
Heightened Def Con from 0.000593451 to 0.000593452
Heightened Def Con from 0.000594267 to 0.00059428
Heightened Def Con from 0.000595111 to 0.000595112
Heightened Def Con from 0.000595927 to 0.00059594
Heightened Def Con from 0.000596771 to 0.000596772
Heightened Def Con from 0.000597587 to 0.0005976
Heightened Def Con from 0.000598431 to 0.000598432
Heightened Def Con from 0.000599247 to 0.00059926
Heightened Def Con from 0.000600091 to 0.000600092
Heightened Def Con from 0.000600093 to 0.000600107
Heightened Def Con from 0.000600907 to 0.00060092
Heightened Def Con from 0.000601751 to 0.000601752
Heightened Def Con from 0.000601752 to 0.000601764
Heightened Def Con from 0.000602567 to 0.00060258
Heightened Def Con from 0.000603411 to 0.000603412
Heightened Def Con from 0.000604227 to 0.00060424
Heightened Def Con from 0.000605071 to 0.000605072
Heightened Def Con from 0.000605072 to 0.000605084
Heightened Def Con from 0.000605887 to 0.0006059
Heightened Def Con from 0.000606731 to 0.000606732
Heightened Def Con from 0.000606732 to 0.000606744
Heightened Def Con from 0.000607547 to 0.00060756
Heightened Def Con from 0.000608391 to 0.000608392
Heightened Def Con from 0.000608392 to 0.000608404
Heightened Def Con from 0.000609207 to 0.00060922
Heightened Def Con from 0.000610051 to 0.000610052
Heightened Def Con from 0.000610052 to 0.000610064
Heightened Def Con from 0.000610867 to 0.00061088
Heightened Def Con from 0.000611711 to 0.000611712
Heightened Def Con from 0.000611712 to 0.000611724
Heightened Def Con from 0.000612527 to 0.00061254
Heightened Def Con from 0.000613371 to 0.000613372
Heightened Def Con from 0.000613372 to 0.000613384
Heightened Def Con from 0.000614187 to 0.0006142
Heightened Def Con from 0.000615031 to 0.000615032
Heightened Def Con from 0.000615032 to 0.000615044
Heightened Def Con from 0.000615847 to 0.00061586
Heightened Def Con from 0.000616691 to 0.000616692
Heightened Def Con from 0.000616692 to 0.000616704
Heightened Def Con from 0.000617507 to 0.00061752
Heightened Def Con from 0.000618351 to 0.000618352
Heightened Def Con from 0.000618352 to 0.000618364
Heightened Def Con from 0.000619167 to 0.00061918
Heightened Def Con from 0.000620011 to 0.000620012
Heightened Def Con from 0.000620012 to 0.000620024
Heightened Def Con from 0.000620827 to 0.00062084
Heightened Def Con from 0.000621671 to 0.000621672
Heightened Def Con from 0.000621672 to 0.000621684
Heightened Def Con from 0.000622487 to 0.0006225
Heightened Def Con from 0.000623331 to 0.000623332
Heightened Def Con from 0.000624147 to 0.00062416
Heightened Def Con from 0.000624991 to 0.000624992
Heightened Def Con from 0.000624992 to 0.000625004
Heightened Def Con from 0.000625807 to 0.00062582
Heightened Def Con from 0.000626651 to 0.000626652
Heightened Def Con from 0.000626653 to 0.000626667
Heightened Def Con from 0.000627467 to 0.00062748
Heightened Def Con from 0.000628311 to 0.000628312
Heightened Def Con from 0.000629127 to 0.00062914
Heightened Def Con from 0.000629971 to 0.000629972
Heightened Def Con from 0.000630787 to 0.0006308
Heightened Def Con from 0.000631631 to 0.000631632
Heightened Def Con from 0.000632447 to 0.00063246
Heightened Def Con from 0.000633291 to 0.000633292
Heightened Def Con from 0.000634107 to 0.00063412
Heightened Def Con from 0.000634951 to 0.000634952
Heightened Def Con from 0.000635767 to 0.00063578
Heightened Def Con from 0.000636611 to 0.000636612
Heightened Def Con from 0.000637427 to 0.00063744
Heightened Def Con from 0.000638271 to 0.000638272
Heightened Def Con from 0.000639087 to 0.0006391
Heightened Def Con from 0.000639931 to 0.000639932
Heightened Def Con from 0.000639933 to 0.000639944
Heightened Def Con from 0.000640747 to 0.00064076
Heightened Def Con from 0.000641591 to 0.000641592
Heightened Def Con from 0.000641592 to 0.000641604
Heightened Def Con from 0.000642407 to 0.00064242
Heightened Def Con from 0.000643251 to 0.000643252
Heightened Def Con from 0.000643253 to 0.000643264
Heightened Def Con from 0.000644067 to 0.00064408
Heightened Def Con from 0.000644911 to 0.000644912
Heightened Def Con from 0.000644912 to 0.000644924
Heightened Def Con from 0.000645727 to 0.00064574
Heightened Def Con from 0.000646571 to 0.000646572
Heightened Def Con from 0.000646573 to 0.000646584
Heightened Def Con from 0.000647387 to 0.0006474
Heightened Def Con from 0.000648231 to 0.000648232
Heightened Def Con from 0.000649047 to 0.00064906
Heightened Def Con from 0.000649891 to 0.000649892
Heightened Def Con from 0.000650707 to 0.00065072
Heightened Def Con from 0.000651551 to 0.000651552
Heightened Def Con from 0.000651553 to 0.000651564
Heightened Def Con from 0.000652367 to 0.00065238
Heightened Def Con from 0.000653211 to 0.000653212
Heightened Def Con from 0.000654027 to 0.00065404
Heightened Def Con from 0.000654871 to 0.000654872
Heightened Def Con from 0.000654873 to 0.000654884
Heightened Def Con from 0.000655687 to 0.0006557
Heightened Def Con from 0.000656531 to 0.000656532
Heightened Def Con from 0.000657347 to 0.00065736
Heightened Def Con from 0.000658191 to 0.000658192
Heightened Def Con from 0.000659007 to 0.00065902
Heightened Def Con from 0.000659851 to 0.000659852
Heightened Def Con from 0.000660667 to 0.00066068
Heightened Def Con from 0.000661511 to 0.000661512
Heightened Def Con from 0.000662327 to 0.00066234
Heightened Def Con from 0.000663171 to 0.000663172
Heightened Def Con from 0.000663172 to 0.000663184
Heightened Def Con from 0.000663987 to 0.000664
Heightened Def Con from 0.000664831 to 0.000664832
Heightened Def Con from 0.000664832 to 0.000664844
Heightened Def Con from 0.000665647 to 0.00066566
Heightened Def Con from 0.000666491 to 0.000666492
Heightened Def Con from 0.000666492 to 0.000666504
Heightened Def Con from 0.000667307 to 0.00066732
Heightened Def Con from 0.000668151 to 0.000668152
Heightened Def Con from 0.000668152 to 0.000668164
Heightened Def Con from 0.000668967 to 0.00066898
Heightened Def Con from 0.000669811 to 0.000669812
Heightened Def Con from 0.000669812 to 0.000669824
Heightened Def Con from 0.000670627 to 0.00067064
Heightened Def Con from 0.000671471 to 0.000671472
Heightened Def Con from 0.000671472 to 0.000671484
Heightened Def Con from 0.000672287 to 0.0006723
Heightened Def Con from 0.000673131 to 0.000673132
Heightened Def Con from 0.000673132 to 0.000673144
Heightened Def Con from 0.000673947 to 0.00067396
Heightened Def Con from 0.000674791 to 0.000674792
Heightened Def Con from 0.000674792 to 0.000674804
Heightened Def Con from 0.000675607 to 0.00067562
Heightened Def Con from 0.000676451 to 0.000676452
Heightened Def Con from 0.000676452 to 0.000676464
Heightened Def Con from 0.000677267 to 0.00067728
Heightened Def Con from 0.000678111 to 0.000678112
Heightened Def Con from 0.000678112 to 0.000678124
Heightened Def Con from 0.000678927 to 0.00067894
Heightened Def Con from 0.000679771 to 0.000679772
Heightened Def Con from 0.000679772 to 0.000679784
Heightened Def Con from 0.000680587 to 0.0006806
Heightened Def Con from 0.000681431 to 0.000681432
Heightened Def Con from 0.000681433 to 0.000681447
Heightened Def Con from 0.000682247 to 0.00068226
Heightened Def Con from 0.000683091 to 0.000683092
Heightened Def Con from 0.000683092 to 0.000683104
Heightened Def Con from 0.000683907 to 0.00068392
Heightened Def Con from 0.000684751 to 0.000684752
Heightened Def Con from 0.000685567 to 0.00068558
Heightened Def Con from 0.000686411 to 0.000686412
Heightened Def Con from 0.000686413 to 0.000686424
Heightened Def Con from 0.000687227 to 0.00068724
Heightened Def Con from 0.000688071 to 0.000688072
Heightened Def Con from 0.000688073 to 0.000688084
Heightened Def Con from 0.000688887 to 0.0006889
Heightened Def Con from 0.000689731 to 0.000689732
Heightened Def Con from 0.000689733 to 0.000689744
Heightened Def Con from 0.000690547 to 0.00069056
Heightened Def Con from 0.000691391 to 0.000691392
Heightened Def Con from 0.000691393 to 0.000691404
Heightened Def Con from 0.000692207 to 0.00069222
Heightened Def Con from 0.000693051 to 0.000693052
Heightened Def Con from 0.000693052 to 0.000693064
Heightened Def Con from 0.000693867 to 0.00069388
Heightened Def Con from 0.000694711 to 0.000694712
Heightened Def Con from 0.000694713 to 0.000694724
Heightened Def Con from 0.000695527 to 0.00069554
Heightened Def Con from 0.000696371 to 0.000696372
Heightened Def Con from 0.000697187 to 0.0006972
Heightened Def Con from 0.000698031 to 0.000698032
Heightened Def Con from 0.000698847 to 0.00069886
Heightened Def Con from 0.000699691 to 0.000699692
Heightened Def Con from 0.000700507 to 0.00070052
Heightened Def Con from 0.000701351 to 0.000701352
Heightened Def Con from 0.000702167 to 0.00070218
Heightened Def Con from 0.000703011 to 0.000703012
Heightened Def Con from 0.000703013 to 0.000703024
Heightened Def Con from 0.000703827 to 0.00070384
Heightened Def Con from 0.000704671 to 0.000704672
Heightened Def Con from 0.000705487 to 0.0007055
Heightened Def Con from 0.000706331 to 0.000706332
Heightened Def Con from 0.000706333 to 0.000706344
Heightened Def Con from 0.000707147 to 0.00070716
Heightened Def Con from 0.000707991 to 0.000707992
Heightened Def Con from 0.000708807 to 0.00070882
Heightened Def Con from 0.000709651 to 0.000709652
Heightened Def Con from 0.000710467 to 0.00071048
Heightened Def Con from 0.000711311 to 0.000711312
Heightened Def Con from 0.000711313 to 0.000711324
Heightened Def Con from 0.000712127 to 0.00071214
Heightened Def Con from 0.000712971 to 0.000712972
Heightened Def Con from 0.000713787 to 0.0007138
Heightened Def Con from 0.000714631 to 0.000714632
Heightened Def Con from 0.000714633 to 0.000714644
Heightened Def Con from 0.000715447 to 0.00071546
Heightened Def Con from 0.000716291 to 0.000716292
Heightened Def Con from 0.000716292 to 0.000716304
Heightened Def Con from 0.000717107 to 0.00071712
Heightened Def Con from 0.000717951 to 0.000717952
Heightened Def Con from 0.000717953 to 0.000717967
Heightened Def Con from 0.000718767 to 0.00071878
Heightened Def Con from 0.000719611 to 0.000719612
Heightened Def Con from 0.000719613 to 0.000719627
Heightened Def Con from 0.000720427 to 0.00072044
Heightened Def Con from 0.000721271 to 0.000721272
Heightened Def Con from 0.000721273 to 0.000721287
Heightened Def Con from 0.000722087 to 0.0007221
Heightened Def Con from 0.000722931 to 0.000722932
Heightened Def Con from 0.000723747 to 0.00072376
Heightened Def Con from 0.000724591 to 0.000724592
Heightened Def Con from 0.000724592 to 0.000724604
Heightened Def Con from 0.000725407 to 0.00072542
Heightened Def Con from 0.000726251 to 0.000726252
Heightened Def Con from 0.000726253 to 0.000726264
Heightened Def Con from 0.000727067 to 0.00072708
Heightened Def Con from 0.000727911 to 0.000727912
Heightened Def Con from 0.000727913 to 0.000727924
Heightened Def Con from 0.000728727 to 0.00072874
Heightened Def Con from 0.000729571 to 0.000729572
Heightened Def Con from 0.000729572 to 0.000729584
Heightened Def Con from 0.000730387 to 0.0007304
Heightened Def Con from 0.000731231 to 0.000731232
Heightened Def Con from 0.000731233 to 0.000731244
Heightened Def Con from 0.000732047 to 0.00073206
Heightened Def Con from 0.000732891 to 0.000732892
Heightened Def Con from 0.000733707 to 0.00073372
Heightened Def Con from 0.000734551 to 0.000734552
Heightened Def Con from 0.000734553 to 0.000734564
Heightened Def Con from 0.000735367 to 0.00073538
Heightened Def Con from 0.000736211 to 0.000736212
Heightened Def Con from 0.000736212 to 0.000736224
Heightened Def Con from 0.000737027 to 0.00073704
Heightened Def Con from 0.000737871 to 0.000737872
Heightened Def Con from 0.000737872 to 0.000737884
Heightened Def Con from 0.000738687 to 0.0007387
Heightened Def Con from 0.000739531 to 0.000739532
Heightened Def Con from 0.000739533 to 0.000739547
Heightened Def Con from 0.000740347 to 0.00074036
Heightened Def Con from 0.000741191 to 0.000741192
Heightened Def Con from 0.000741192 to 0.000741204
Heightened Def Con from 0.000742007 to 0.00074202
Heightened Def Con from 0.000742851 to 0.000742852
Heightened Def Con from 0.000743667 to 0.00074368
Heightened Def Con from 0.000744511 to 0.000744512
Heightened Def Con from 0.000745327 to 0.00074534
Heightened Def Con from 0.000746171 to 0.000746172
Heightened Def Con from 0.000746987 to 0.000747
Heightened Def Con from 0.000747831 to 0.000747832
Heightened Def Con from 0.000748647 to 0.00074866
Heightened Def Con from 0.000749491 to 0.000749492
Heightened Def Con from 0.000749492 to 0.000749504
Heightened Def Con from 0.000750307 to 0.00075032
Heightened Def Con from 0.000751151 to 0.000751152
Heightened Def Con from 0.000751153 to 0.000751164
Heightened Def Con from 0.000751967 to 0.00075198
Heightened Def Con from 0.000752811 to 0.000752812
Heightened Def Con from 0.000753627 to 0.00075364
Heightened Def Con from 0.000754471 to 0.000754472
Heightened Def Con from 0.000754473 to 0.000754484
Heightened Def Con from 0.000755287 to 0.0007553
Heightened Def Con from 0.000756131 to 0.000756132
Heightened Def Con from 0.000756132 to 0.000756144
Heightened Def Con from 0.000756947 to 0.00075696
Heightened Def Con from 0.000757791 to 0.000757792
Heightened Def Con from 0.000758607 to 0.00075862
Heightened Def Con from 0.000759451 to 0.000759452
Heightened Def Con from 0.000759453 to 0.000759464
Heightened Def Con from 0.000760267 to 0.00076028
Heightened Def Con from 0.000761111 to 0.000761112
Heightened Def Con from 0.000761927 to 0.00076194
Heightened Def Con from 0.000762771 to 0.000762772
Heightened Def Con from 0.000762773 to 0.000762784
Heightened Def Con from 0.000763587 to 0.0007636
Heightened Def Con from 0.000764431 to 0.000764432
Heightened Def Con from 0.000764432 to 0.000764444
Heightened Def Con from 0.000765247 to 0.00076526
Heightened Def Con from 0.000766091 to 0.000766092
Heightened Def Con from 0.000766907 to 0.00076692
Heightened Def Con from 0.000767751 to 0.000767752
Heightened Def Con from 0.000768567 to 0.00076858
Heightened Def Con from 0.000769411 to 0.000769412
Heightened Def Con from 0.000769413 to 0.000769424
Heightened Def Con from 0.000770227 to 0.00077024
Heightened Def Con from 0.000771071 to 0.000771072
Heightened Def Con from 0.000771887 to 0.0007719
Heightened Def Con from 0.000772731 to 0.000772732
Heightened Def Con from 0.000772733 to 0.000772744
Heightened Def Con from 0.000773547 to 0.00077356
Heightened Def Con from 0.000774391 to 0.000774392
Heightened Def Con from 0.000775207 to 0.00077522
Heightened Def Con from 0.000776051 to 0.000776052
Heightened Def Con from 0.000776052 to 0.000776064
Heightened Def Con from 0.000776867 to 0.00077688
Heightened Def Con from 0.000777711 to 0.000777712
Heightened Def Con from 0.000777713 to 0.000777724
Heightened Def Con from 0.000778527 to 0.00077854
Heightened Def Con from 0.000779371 to 0.000779372
Heightened Def Con from 0.000779373 to 0.000779387
Heightened Def Con from 0.000780187 to 0.0007802
Heightened Def Con from 0.000781031 to 0.000781032
Heightened Def Con from 0.000781033 to 0.000781047
Heightened Def Con from 0.000781847 to 0.00078186
Heightened Def Con from 0.000782691 to 0.000782692
Heightened Def Con from 0.000783507 to 0.00078352
Heightened Def Con from 0.000784351 to 0.000784352
Heightened Def Con from 0.000784352 to 0.000784364
Heightened Def Con from 0.000785167 to 0.00078518
Heightened Def Con from 0.000786011 to 0.000786012
Heightened Def Con from 0.000786013 to 0.000786024
Heightened Def Con from 0.000786827 to 0.00078684
Heightened Def Con from 0.000787671 to 0.000787672
Heightened Def Con from 0.000787673 to 0.000787684
Heightened Def Con from 0.000788487 to 0.0007885
Heightened Def Con from 0.000789331 to 0.000789332
Heightened Def Con from 0.000789333 to 0.000789344
Heightened Def Con from 0.000790147 to 0.00079016
Heightened Def Con from 0.000790991 to 0.000790992
Heightened Def Con from 0.000790992 to 0.000791004
Heightened Def Con from 0.000791807 to 0.00079182
Heightened Def Con from 0.000792651 to 0.000792652
Heightened Def Con from 0.000792652 to 0.000792664
Heightened Def Con from 0.000793467 to 0.00079348
Heightened Def Con from 0.000794311 to 0.000794312
Heightened Def Con from 0.000795127 to 0.00079514
Heightened Def Con from 0.000795971 to 0.000795972
Heightened Def Con from 0.000795973 to 0.000795987
Heightened Def Con from 0.000796787 to 0.0007968
Heightened Def Con from 0.000797631 to 0.000797632
Heightened Def Con from 0.000797633 to 0.000797647
Heightened Def Con from 0.000798447 to 0.00079846
Heightened Def Con from 0.000799291 to 0.000799292
Heightened Def Con from 0.000799293 to 0.000799307
Heightened Def Con from 0.000800107 to 0.00080012
Heightened Def Con from 0.000800951 to 0.000800952
Heightened Def Con from 0.000801767 to 0.00080178
Heightened Def Con from 0.000802611 to 0.000802612
Heightened Def Con from 0.000803427 to 0.00080344
Heightened Def Con from 0.000804271 to 0.000804272
Heightened Def Con from 0.000805087 to 0.0008051
Heightened Def Con from 0.000805931 to 0.000805932
Heightened Def Con from 0.000806747 to 0.00080676
Heightened Def Con from 0.000807591 to 0.000807592
Heightened Def Con from 0.000807592 to 0.000807604
Heightened Def Con from 0.000808407 to 0.00080842
Heightened Def Con from 0.000809251 to 0.000809252
Heightened Def Con from 0.000810067 to 0.00081008
Heightened Def Con from 0.000810911 to 0.000810912
Heightened Def Con from 0.000810913 to 0.000810924
Heightened Def Con from 0.000811727 to 0.00081174
Heightened Def Con from 0.000812571 to 0.000812572
Heightened Def Con from 0.000813387 to 0.0008134
Heightened Def Con from 0.000814231 to 0.000814232
Heightened Def Con from 0.000815047 to 0.00081506
Heightened Def Con from 0.000815891 to 0.000815892
Heightened Def Con from 0.000815893 to 0.000815904
Heightened Def Con from 0.000816707 to 0.00081672
Heightened Def Con from 0.000817551 to 0.000817552
Heightened Def Con from 0.000818367 to 0.00081838
Heightened Def Con from 0.000819211 to 0.000819212
Heightened Def Con from 0.000819212 to 0.000819224
Heightened Def Con from 0.000820027 to 0.00082004
Heightened Def Con from 0.000820871 to 0.000820872
Heightened Def Con from 0.000821687 to 0.0008217
Heightened Def Con from 0.000822531 to 0.000822532
Heightened Def Con from 0.000823347 to 0.00082336
Heightened Def Con from 0.000824191 to 0.000824192
Heightened Def Con from 0.000825007 to 0.00082502
Heightened Def Con from 0.000825851 to 0.000825852
Heightened Def Con from 0.000826667 to 0.00082668
Heightened Def Con from 0.000827511 to 0.000827512
Heightened Def Con from 0.000828327 to 0.00082834
Heightened Def Con from 0.000829171 to 0.000829172
Heightened Def Con from 0.000829987 to 0.00083
Heightened Def Con from 0.000830831 to 0.000830832
Heightened Def Con from 0.000831647 to 0.00083166
Heightened Def Con from 0.000832491 to 0.000832492
Heightened Def Con from 0.000833307 to 0.00083332
Heightened Def Con from 0.000834151 to 0.000834152
Heightened Def Con from 0.000834967 to 0.00083498
Heightened Def Con from 0.000835811 to 0.000835812
Heightened Def Con from 0.000835813 to 0.000835824
Heightened Def Con from 0.000836627 to 0.00083664
Heightened Def Con from 0.000837471 to 0.000837472
Heightened Def Con from 0.000838287 to 0.0008383
Heightened Def Con from 0.000839131 to 0.000839132
Heightened Def Con from 0.000839947 to 0.00083996
Heightened Def Con from 0.000840791 to 0.000840792
Heightened Def Con from 0.000840793 to 0.000840807
Heightened Def Con from 0.000841607 to 0.00084162
Heightened Def Con from 0.000842451 to 0.000842452
Heightened Def Con from 0.000842453 to 0.000842467
Heightened Def Con from 0.000843267 to 0.00084328
Heightened Def Con from 0.000844111 to 0.000844112
Heightened Def Con from 0.000844113 to 0.000844127
Heightened Def Con from 0.000844927 to 0.00084494
Heightened Def Con from 0.000845771 to 0.000845772
Heightened Def Con from 0.000845773 to 0.000845787
Heightened Def Con from 0.000846587 to 0.0008466
Heightened Def Con from 0.000847431 to 0.000847432
Heightened Def Con from 0.000847433 to 0.000847447
Heightened Def Con from 0.000848247 to 0.00084826
Heightened Def Con from 0.000849091 to 0.000849092
Heightened Def Con from 0.000849093 to 0.000849107
Heightened Def Con from 0.000849907 to 0.00084992
Heightened Def Con from 0.000850751 to 0.000850752
Heightened Def Con from 0.000850752 to 0.000850764
Heightened Def Con from 0.000851567 to 0.00085158
Heightened Def Con from 0.000852411 to 0.000852412
Heightened Def Con from 0.000853227 to 0.00085324
Heightened Def Con from 0.000854071 to 0.000854072
Heightened Def Con from 0.000854073 to 0.000854087
Heightened Def Con from 0.000854887 to 0.0008549
Heightened Def Con from 0.000855731 to 0.000855732
Heightened Def Con from 0.000855732 to 0.000855744
Heightened Def Con from 0.000856547 to 0.00085656
Heightened Def Con from 0.000857391 to 0.000857392
Heightened Def Con from 0.000858207 to 0.00085822
Heightened Def Con from 0.000859051 to 0.000859052
Heightened Def Con from 0.000859867 to 0.00085988
Heightened Def Con from 0.000860711 to 0.000860712
Heightened Def Con from 0.000861527 to 0.00086154
Heightened Def Con from 0.000862371 to 0.000862372
Heightened Def Con from 0.000862373 to 0.000862384
Heightened Def Con from 0.000863187 to 0.0008632
Heightened Def Con from 0.000864031 to 0.000864032
Heightened Def Con from 0.000864847 to 0.00086486
Heightened Def Con from 0.000865691 to 0.000865692
Heightened Def Con from 0.000865693 to 0.000865704
Heightened Def Con from 0.000866507 to 0.00086652
Heightened Def Con from 0.000867351 to 0.000867352
Heightened Def Con from 0.000867353 to 0.000867364
Heightened Def Con from 0.000868167 to 0.00086818
Heightened Def Con from 0.000869011 to 0.000869012
Heightened Def Con from 0.000869827 to 0.00086984
Heightened Def Con from 0.000870671 to 0.000870672
Heightened Def Con from 0.000871487 to 0.0008715
Heightened Def Con from 0.000872331 to 0.000872332
Heightened Def Con from 0.000873147 to 0.00087316
Heightened Def Con from 0.000873991 to 0.000873992
Heightened Def Con from 0.000874807 to 0.00087482
Heightened Def Con from 0.000875651 to 0.000875652
Heightened Def Con from 0.000875652 to 0.000875664
Heightened Def Con from 0.000876467 to 0.00087648
Heightened Def Con from 0.000877311 to 0.000877312
Heightened Def Con from 0.000878127 to 0.00087814
Heightened Def Con from 0.000878971 to 0.000878972
Heightened Def Con from 0.000879787 to 0.0008798
Heightened Def Con from 0.000880631 to 0.000880632
Heightened Def Con from 0.000880632 to 0.000880644
Heightened Def Con from 0.000881447 to 0.00088146
Heightened Def Con from 0.000882291 to 0.000882292
Heightened Def Con from 0.000883107 to 0.00088312
Heightened Def Con from 0.000883951 to 0.000883952
Heightened Def Con from 0.000884767 to 0.00088478
Heightened Def Con from 0.000885611 to 0.000885612
Heightened Def Con from 0.000885613 to 0.000885624
Heightened Def Con from 0.000886427 to 0.00088644
Heightened Def Con from 0.000887271 to 0.000887272
Heightened Def Con from 0.000887272 to 0.000887284
Heightened Def Con from 0.000888087 to 0.0008881
Heightened Def Con from 0.000888931 to 0.000888932
Heightened Def Con from 0.000889747 to 0.00088976
Heightened Def Con from 0.000890591 to 0.000890592
Heightened Def Con from 0.000891407 to 0.00089142
Heightened Def Con from 0.000892251 to 0.000892252
Heightened Def Con from 0.000893067 to 0.00089308
Heightened Def Con from 0.000893911 to 0.000893912
Heightened Def Con from 0.000893913 to 0.000893924
Heightened Def Con from 0.000894727 to 0.00089474
Heightened Def Con from 0.000895571 to 0.000895572
Heightened Def Con from 0.000895573 to 0.000895584
Heightened Def Con from 0.000896387 to 0.0008964
Heightened Def Con from 0.000897231 to 0.000897232
Heightened Def Con from 0.000897233 to 0.000897244
Heightened Def Con from 0.000898047 to 0.00089806
Heightened Def Con from 0.000898891 to 0.000898892
Heightened Def Con from 0.000899707 to 0.00089972
Heightened Def Con from 0.000900551 to 0.000900552
Heightened Def Con from 0.000901367 to 0.00090138
Heightened Def Con from 0.000902211 to 0.000902212
Heightened Def Con from 0.000902212 to 0.000902224
Heightened Def Con from 0.000903027 to 0.00090304
Heightened Def Con from 0.000903871 to 0.000903872
Heightened Def Con from 0.000904687 to 0.0009047
Heightened Def Con from 0.000905531 to 0.000905532
Heightened Def Con from 0.000905532 to 0.000905544
Heightened Def Con from 0.000906347 to 0.00090636
Heightened Def Con from 0.000907191 to 0.000907192
Heightened Def Con from 0.000908007 to 0.00090802
Heightened Def Con from 0.000908851 to 0.000908852
Heightened Def Con from 0.000908853 to 0.000908867
Heightened Def Con from 0.000909667 to 0.00090968
Heightened Def Con from 0.000910511 to 0.000910512
Heightened Def Con from 0.000911327 to 0.00091134
Heightened Def Con from 0.000912171 to 0.000912172
Heightened Def Con from 0.000912172 to 0.000912184
Heightened Def Con from 0.000912987 to 0.000913
Heightened Def Con from 0.000913831 to 0.000913832
Heightened Def Con from 0.000913832 to 0.000913844
Heightened Def Con from 0.000914647 to 0.00091466
Heightened Def Con from 0.000915491 to 0.000915492
Heightened Def Con from 0.000916307 to 0.00091632
Heightened Def Con from 0.000917151 to 0.000917152
Heightened Def Con from 0.000917153 to 0.000917164
Heightened Def Con from 0.000917967 to 0.00091798
Heightened Def Con from 0.000918811 to 0.000918812
Heightened Def Con from 0.000919627 to 0.00091964
Heightened Def Con from 0.000920471 to 0.000920472
Heightened Def Con from 0.000921287 to 0.0009213
Heightened Def Con from 0.000922131 to 0.000922132
Heightened Def Con from 0.000922947 to 0.00092296
Heightened Def Con from 0.000923791 to 0.000923792
Heightened Def Con from 0.000924607 to 0.00092462
Heightened Def Con from 0.000925451 to 0.000925452
Heightened Def Con from 0.000925453 to 0.000925464
Heightened Def Con from 0.000926267 to 0.00092628
Heightened Def Con from 0.000927111 to 0.000927112
Heightened Def Con from 0.000927927 to 0.00092794
Heightened Def Con from 0.000928771 to 0.000928772
Heightened Def Con from 0.000928773 to 0.000928784
Heightened Def Con from 0.000929587 to 0.0009296
Heightened Def Con from 0.000930431 to 0.000930432
Heightened Def Con from 0.000931247 to 0.00093126
Heightened Def Con from 0.000932091 to 0.000932092
Heightened Def Con from 0.000932093 to 0.000932104
Heightened Def Con from 0.000932907 to 0.00093292
Heightened Def Con from 0.000933751 to 0.000933752
Heightened Def Con from 0.000934567 to 0.00093458
Heightened Def Con from 0.000935411 to 0.000935412
Heightened Def Con from 0.000936227 to 0.00093624
Heightened Def Con from 0.000937071 to 0.000937072
Heightened Def Con from 0.000937887 to 0.0009379
Heightened Def Con from 0.000938731 to 0.000938732
Heightened Def Con from 0.000939547 to 0.00093956
Heightened Def Con from 0.000940391 to 0.000940392
Heightened Def Con from 0.000940393 to 0.000940404
Heightened Def Con from 0.000941207 to 0.00094122
Heightened Def Con from 0.000942051 to 0.000942052
Heightened Def Con from 0.000942867 to 0.00094288
Heightened Def Con from 0.000943711 to 0.000943712
Heightened Def Con from 0.000944527 to 0.00094454
Heightened Def Con from 0.000945371 to 0.000945372
Heightened Def Con from 0.000946187 to 0.0009462
Heightened Def Con from 0.000947031 to 0.000947032
Heightened Def Con from 0.000947847 to 0.00094786
Heightened Def Con from 0.000948691 to 0.000948692
Heightened Def Con from 0.000949507 to 0.00094952
Heightened Def Con from 0.000950351 to 0.000950352
Heightened Def Con from 0.000951167 to 0.00095118
Heightened Def Con from 0.000952011 to 0.000952012
Heightened Def Con from 0.000952827 to 0.00095284
Heightened Def Con from 0.000953671 to 0.000953672
Heightened Def Con from 0.000954487 to 0.0009545
Heightened Def Con from 0.000955331 to 0.000955332
Heightened Def Con from 0.000956147 to 0.00095616
Heightened Def Con from 0.000956991 to 0.000956992
Heightened Def Con from 0.000957807 to 0.00095782
Heightened Def Con from 0.000958651 to 0.000958652
Heightened Def Con from 0.000959467 to 0.00095948
Heightened Def Con from 0.000960311 to 0.000960312
Heightened Def Con from 0.000960313 to 0.000960324
Heightened Def Con from 0.000961127 to 0.00096114
Heightened Def Con from 0.000961971 to 0.000961972
Heightened Def Con from 0.000962787 to 0.0009628
Heightened Def Con from 0.000963631 to 0.000963632
Heightened Def Con from 0.000963633 to 0.000963644
Heightened Def Con from 0.000964447 to 0.00096446
Heightened Def Con from 0.000965291 to 0.000965292
Heightened Def Con from 0.000966107 to 0.00096612
Heightened Def Con from 0.000966951 to 0.000966952
Heightened Def Con from 0.000967767 to 0.00096778
Heightened Def Con from 0.000968611 to 0.000968612
Heightened Def Con from 0.000969427 to 0.00096944
Heightened Def Con from 0.000970271 to 0.000970272
Heightened Def Con from 0.000971087 to 0.0009711
Heightened Def Con from 0.000971931 to 0.000971932
Heightened Def Con from 0.000972747 to 0.00097276
Heightened Def Con from 0.000973591 to 0.000973592
Heightened Def Con from 0.000974407 to 0.00097442
Heightened Def Con from 0.000975251 to 0.000975252
Heightened Def Con from 0.000976067 to 0.00097608
Heightened Def Con from 0.000976911 to 0.000976912
Heightened Def Con from 0.000977727 to 0.00097774
Heightened Def Con from 0.000978571 to 0.000978572
Heightened Def Con from 0.000979387 to 0.0009794
Heightened Def Con from 0.000980231 to 0.000980232
Heightened Def Con from 0.000981047 to 0.00098106
Heightened Def Con from 0.000981891 to 0.000981892
Heightened Def Con from 0.000982707 to 0.00098272
Heightened Def Con from 0.000983551 to 0.000983552
Heightened Def Con from 0.000984367 to 0.00098438
Heightened Def Con from 0.000985211 to 0.000985212
Heightened Def Con from 0.000985212 to 0.000985224
Heightened Def Con from 0.000986027 to 0.00098604
Heightened Def Con from 0.000986871 to 0.000986872
Heightened Def Con from 0.000986872 to 0.000986884
Heightened Def Con from 0.000987687 to 0.0009877
Heightened Def Con from 0.000988531 to 0.000988532
Heightened Def Con from 0.000989347 to 0.00098936
Heightened Def Con from 0.000990191 to 0.000990192
Heightened Def Con from 0.000990193 to 0.000990204
Heightened Def Con from 0.000991007 to 0.00099102
Heightened Def Con from 0.000991851 to 0.000991852
Heightened Def Con from 0.000991853 to 0.000991864
Heightened Def Con from 0.000992667 to 0.00099268
Heightened Def Con from 0.000993511 to 0.000993512
Heightened Def Con from 0.000993513 to 0.000993524
Heightened Def Con from 0.000994327 to 0.00099434
Heightened Def Con from 0.000995171 to 0.000995172
Heightened Def Con from 0.000995987 to 0.000996
Heightened Def Con from 0.000996831 to 0.000996832
Heightened Def Con from 0.000997647 to 0.00099766
Heightened Def Con from 0.000998491 to 0.000998492
Heightened Def Con from 0.000999307 to 0.00099932

Date: Fri Jul 03 12:55:10 2020
Total elapsed time: 83.610 seconds.

tnom = 27
temp = 27
method = modified trap
totiter = 9445539
traniter = 9445502
tranpoints = 2415516
accept = 1769657
rejected = 647390
matrix size = 41
fillins = 28
solver = Normal
Matrix Compiler1: 4.65 KB object code size  1.1/0.7/[0.4]
Matrix Compiler2: 3.93 KB object code size  0.5/0.7/[0.2]

