Circuit: * D:\AUV Capstone\AUV-Senior-Design\Frank\chum-bucket\Sims\ac_adapter_inverter_logic.asc

Direct Newton iteration for .op point succeeded.

Date: Fri Oct 30 00:43:00 2020
Total elapsed time: 0.214 seconds.

tnom = 27
temp = 27
method = modified trap
totiter = 2693
traniter = 2687
tranpoints = 1238
accept = 1198
rejected = 40
matrix size = 12
fillins = 0
solver = Normal
Matrix Compiler1: 508 bytes object code size  0.1/0.1/[0.1]
Matrix Compiler2: 866 bytes object code size  0.1/0.1/[0.1]

