Circuit: * C:\Users\frwalsh\OneDrive - Tesla\Documents\GitHub\chum-bucket\Sims\esc_inrush.asc

.OP point found by inspection.

Date: Tue Jun 16 06:40:19 2020
Total elapsed time: 0.055 seconds.

tnom = 27
temp = 27
method = modified trap
totiter = 2152
traniter = 2152
tranpoints = 1077
accept = 1076
rejected = 1
matrix size = 13
fillins = 0
solver = Normal
Matrix Compiler1: 604 bytes object code size  1.1/0.1/[0.1]
Matrix Compiler2: 919 bytes object code size  0.1/0.1/[0.0]

